Using: /RAID2/cad/synopsys/hspice/2020.03-sp2-2/hspice/linux64/hspice 22.sp
 ****** HSPICE -- Q-2020.03-SP2-2 linux64 (Nov  1 2020) ******                  
  Copyright (c) 1986 - 2023 by Synopsys, Inc. All Rights Reserved.              
  This software and the associated documentation are proprietary
  to Synopsys, Inc. This software may only be used in accordance
  with the terms and conditions of a written license agreement with
  Synopsys, Inc. All other use, reproduction, or distribution of
  this software is strictly prohibited.
  Input File: 22.sp                                                             
  Command line options: /RAID2/cad/synopsys/hspice/2020.03-sp2-2/hspice/linux64/hspice 22.sp
  Start time: Fri Nov 24 00:00:28 2023
 lic:  
 lic: FLEXlm: SDK_12.6 
 lic: USER:   dic098               HOSTNAME: ee23 
 lic: HOSTID: "d85ed3efc413"       PID:      228381 
 lic: Using FLEXlm license file: 
 lic: 26585@lshc 
 lic: Checkout 1 hspice 
 lic: License/Maintenance for hspice will expire on 31-mar-2024/2023.03 
 lic: 171(in_use)/900(total) FLOATING license(s) on SERVER 26585@lshc 
 lic:   
1****** HSPICE -- Q-2020.03-SP2-2 linux64 (Nov  1 2020) ******                  
 ******  
 .title test adder

 ****** circuit name directory
 circuit number to circuit name directory
   number circuitname                     definition         multiplier
        0 main circuit
        1 x1.                             adder_4bit         1.00 
        2 x2.                             invx1_asap7_75t_r
                                                                 1.00 
        3 x3.                             invx1_asap7_75t_r
                                                                 1.00 
        4 x4.                             invx1_asap7_75t_r
                                                                 1.00 
        5 x5.                             invx1_asap7_75t_r
                                                                 1.00 
        6 x6.                             invx1_asap7_75t_r
                                                                 1.00 
        7 x1.xu3.                         xor2xp5_asap7_75t_r
                                                                 1.00 
        8 x1.xu4.                         nand2xp5_asap7_75t_r
                                                                 1.00 
        9 x1.xu5.                         fax1_asap7_75t_r   1.00 
       10 x1.xu6.                         xnor2xp5_asap7_75t_r
                                                                 1.00 
       11 x1.xu7.                         nand2xp5_asap7_75t_r
                                                                 1.00 
       12 x1.xu8.                         nand2xp5_asap7_75t_r
                                                                 1.00 
       13 x1.xu9.                         or2x2_asap7_75t_r
                                                                 1.00 
       14 x1.xu10.                        nand2xp5_asap7_75t_r
                                                                 1.00 
       15 x1.xu11.                        xor2xp5_asap7_75t_r
                                                                 1.00 
       16 x1.xu12.                        invx1_asap7_75t_r
                                                                 1.00 
       17 x1.xu13.                        nand2xp5_asap7_75t_r
                                                                 1.00 
       18 x1.xu14.                        nand2xp5_asap7_75t_r
                                                                 1.00 
       19 x1.xu15.                        or2x2_asap7_75t_r
                                                                 1.00 
       20 x1.xu16.                        nand3xp33_asap7_75t_r
                                                                 1.00 
       21 x1.xu17.                        nand3xp33_asap7_75t_r
                                                                 1.00 
       22 x1.xu18.                        xnor2xp5_asap7_75t_r
                                                                 1.00 
       23 x1.xu19.                        xor2xp5_asap7_75t_r
                                                                 1.00 
       24 x1.xu20.                        invx1_asap7_75t_r
                                                                 1.00 
       25 x1.xu21.                        or2x2_asap7_75t_r
                                                                 1.00 
       26 x1.xu22.                        nand2xp5_asap7_75t_r
                                                                 1.00 
       27 x1.xu23.                        nand2xp5_asap7_75t_r
                                                                 1.00 
       28 x1.xu24.                        nand2xp5_asap7_75t_r
                                                                 1.00 
       29 x2.x_pm_invx1_asap7_75t_r%noxref_6.
                                            pm_invx1_asap7_75t_r%noxref_6
                                                                 1.00 
       30 x2.x_pm_invx1_asap7_75t_r%noxref_5.
                                            pm_invx1_asap7_75t_r%noxref_5
                                                                 1.00 
       31 x2.x_pm_invx1_asap7_75t_r%noxref_7.
                                            pm_invx1_asap7_75t_r%noxref_7
                                                                 1.00 
       32 x2.x_pm_invx1_asap7_75t_r%noxref_8.
                                            pm_invx1_asap7_75t_r%noxref_8
                                                                 1.00 
       33 x2.x_pm_invx1_asap7_75t_r%y.    pm_invx1_asap7_75t_r%y
                                                                 1.00 
       34 x2.x_pm_invx1_asap7_75t_r%a.    pm_invx1_asap7_75t_r%a
                                                                 1.00 
       35 x3.x_pm_invx1_asap7_75t_r%noxref_6.
                                            pm_invx1_asap7_75t_r%noxref_6
                                                                 1.00 
       36 x3.x_pm_invx1_asap7_75t_r%noxref_5.
                                            pm_invx1_asap7_75t_r%noxref_5
                                                                 1.00 
       37 x3.x_pm_invx1_asap7_75t_r%noxref_7.
                                            pm_invx1_asap7_75t_r%noxref_7
                                                                 1.00 
       38 x3.x_pm_invx1_asap7_75t_r%noxref_8.
                                            pm_invx1_asap7_75t_r%noxref_8
                                                                 1.00 
       39 x3.x_pm_invx1_asap7_75t_r%y.    pm_invx1_asap7_75t_r%y
                                                                 1.00 
       40 x3.x_pm_invx1_asap7_75t_r%a.    pm_invx1_asap7_75t_r%a
                                                                 1.00 
       41 x4.x_pm_invx1_asap7_75t_r%noxref_6.
                                            pm_invx1_asap7_75t_r%noxref_6
                                                                 1.00 
       42 x4.x_pm_invx1_asap7_75t_r%noxref_5.
                                            pm_invx1_asap7_75t_r%noxref_5
                                                                 1.00 
       43 x4.x_pm_invx1_asap7_75t_r%noxref_7.
                                            pm_invx1_asap7_75t_r%noxref_7
                                                                 1.00 
       44 x4.x_pm_invx1_asap7_75t_r%noxref_8.
                                            pm_invx1_asap7_75t_r%noxref_8
                                                                 1.00 
       45 x4.x_pm_invx1_asap7_75t_r%y.    pm_invx1_asap7_75t_r%y
                                                                 1.00 
       46 x4.x_pm_invx1_asap7_75t_r%a.    pm_invx1_asap7_75t_r%a
                                                                 1.00 
       47 x5.x_pm_invx1_asap7_75t_r%noxref_6.
                                            pm_invx1_asap7_75t_r%noxref_6
                                                                 1.00 
       48 x5.x_pm_invx1_asap7_75t_r%noxref_5.
                                            pm_invx1_asap7_75t_r%noxref_5
                                                                 1.00 
       49 x5.x_pm_invx1_asap7_75t_r%noxref_7.
                                            pm_invx1_asap7_75t_r%noxref_7
                                                                 1.00 
       50 x5.x_pm_invx1_asap7_75t_r%noxref_8.
                                            pm_invx1_asap7_75t_r%noxref_8
                                                                 1.00 
       51 x5.x_pm_invx1_asap7_75t_r%y.    pm_invx1_asap7_75t_r%y
                                                                 1.00 
       52 x5.x_pm_invx1_asap7_75t_r%a.    pm_invx1_asap7_75t_r%a
                                                                 1.00 
       53 x6.x_pm_invx1_asap7_75t_r%noxref_6.
                                            pm_invx1_asap7_75t_r%noxref_6
                                                                 1.00 
       54 x6.x_pm_invx1_asap7_75t_r%noxref_5.
                                            pm_invx1_asap7_75t_r%noxref_5
                                                                 1.00 
       55 x6.x_pm_invx1_asap7_75t_r%noxref_7.
                                            pm_invx1_asap7_75t_r%noxref_7
                                                                 1.00 
       56 x6.x_pm_invx1_asap7_75t_r%noxref_8.
                                            pm_invx1_asap7_75t_r%noxref_8
                                                                 1.00 
       57 x6.x_pm_invx1_asap7_75t_r%y.    pm_invx1_asap7_75t_r%y
                                                                 1.00 
       58 x6.x_pm_invx1_asap7_75t_r%a.    pm_invx1_asap7_75t_r%a
                                                                 1.00 
       59 x1.xu3.x_pm_xor2xp5_asap7_75t_r%noxref_14.
                                            pm_xor2xp5_asap7_75t_r%noxref_14
                                                                 1.00 
       60 x1.xu3.x_pm_xor2xp5_asap7_75t_r%noxref_13.
                                            pm_xor2xp5_asap7_75t_r%noxref_13
                                                                 1.00 
       61 x1.xu3.x_pm_xor2xp5_asap7_75t_r%noxref_15.
                                            pm_xor2xp5_asap7_75t_r%noxref_15
                                                                 1.00 
       62 x1.xu3.x_pm_xor2xp5_asap7_75t_r%noxref_16.
                                            pm_xor2xp5_asap7_75t_r%noxref_16
                                                                 1.00 
       63 x1.xu3.x_pm_xor2xp5_asap7_75t_r%noxref_17.
                                            pm_xor2xp5_asap7_75t_r%noxref_17
                                                                 1.00 
       64 x1.xu3.x_pm_xor2xp5_asap7_75t_r%noxref_12.
                                            pm_xor2xp5_asap7_75t_r%noxref_12
                                                                 1.00 
       65 x1.xu3.x_pm_xor2xp5_asap7_75t_r%y.
                                            pm_xor2xp5_asap7_75t_r%y
                                                                 1.00 
       66 x1.xu3.x_pm_xor2xp5_asap7_75t_r%net047.
                                            pm_xor2xp5_asap7_75t_r%net047
                                                                 1.00 
       67 x1.xu3.x_pm_xor2xp5_asap7_75t_r%noxref_10.
                                            pm_xor2xp5_asap7_75t_r%noxref_10
                                                                 1.00 
       68 x1.xu3.x_pm_xor2xp5_asap7_75t_r%net048.
                                            pm_xor2xp5_asap7_75t_r%net048
                                                                 1.00 
       69 x1.xu3.x_pm_xor2xp5_asap7_75t_r%noxref_11.
                                            pm_xor2xp5_asap7_75t_r%noxref_11
                                                                 1.00 
       70 x1.xu3.x_pm_xor2xp5_asap7_75t_r%net019.
                                            pm_xor2xp5_asap7_75t_r%net019
                                                                 1.00 
       71 x1.xu3.x_pm_xor2xp5_asap7_75t_r%b.
                                            pm_xor2xp5_asap7_75t_r%b
                                                                 1.00 
       72 x1.xu3.x_pm_xor2xp5_asap7_75t_r%a.
                                            pm_xor2xp5_asap7_75t_r%a
                                                                 1.00 
       73 x1.xu3.x_pm_xor2xp5_asap7_75t_r%net036.
                                            pm_xor2xp5_asap7_75t_r%net036
                                                                 1.00 
       74 x1.xu4.x_pm_nand2xp5_asap7_75t_r%noxref_7.
                                            pm_nand2xp5_asap7_75t_r%noxref_7
                                                                 1.00 
       75 x1.xu4.x_pm_nand2xp5_asap7_75t_r%noxref_8.
                                            pm_nand2xp5_asap7_75t_r%noxref_8
                                                                 1.00 
       76 x1.xu4.x_pm_nand2xp5_asap7_75t_r%net16.
                                            pm_nand2xp5_asap7_75t_r%net16
                                                                 1.00 
       77 x1.xu4.x_pm_nand2xp5_asap7_75t_r%a.
                                            pm_nand2xp5_asap7_75t_r%a
                                                                 1.00 
       78 x1.xu4.x_pm_nand2xp5_asap7_75t_r%noxref_9.
                                            pm_nand2xp5_asap7_75t_r%noxref_9
                                                                 1.00 
       79 x1.xu4.x_pm_nand2xp5_asap7_75t_r%noxref_10.
                                            pm_nand2xp5_asap7_75t_r%noxref_10
                                                                 1.00 
       80 x1.xu4.x_pm_nand2xp5_asap7_75t_r%b.
                                            pm_nand2xp5_asap7_75t_r%b
                                                                 1.00 
       81 x1.xu4.x_pm_nand2xp5_asap7_75t_r%y.
                                            pm_nand2xp5_asap7_75t_r%y
                                                                 1.00 
       82 x1.xu5.x_pm_fax1_asap7_75t_r%noxref_21.
                                            pm_fax1_asap7_75t_r%noxref_21
                                                                 1.00 
       83 x1.xu5.x_pm_fax1_asap7_75t_r%noxref_20.
                                            pm_fax1_asap7_75t_r%noxref_20
                                                                 1.00 
       84 x1.xu5.x_pm_fax1_asap7_75t_r%net027.
                                            pm_fax1_asap7_75t_r%net027
                                                                 1.00 
       85 x1.xu5.x_pm_fax1_asap7_75t_r%net27.
                                            pm_fax1_asap7_75t_r%net27
                                                                 1.00 
       86 x1.xu5.x_pm_fax1_asap7_75t_r%net25.
                                            pm_fax1_asap7_75t_r%net25
                                                                 1.00 
       87 x1.xu5.x_pm_fax1_asap7_75t_r%net067.
                                            pm_fax1_asap7_75t_r%net067
                                                                 1.00 
       88 x1.xu5.x_pm_fax1_asap7_75t_r%net36.
                                            pm_fax1_asap7_75t_r%net36
                                                                 1.00 
       89 x1.xu5.x_pm_fax1_asap7_75t_r%net079.
                                            pm_fax1_asap7_75t_r%net079
                                                                 1.00 
       90 x1.xu5.x_pm_fax1_asap7_75t_r%net080.
                                            pm_fax1_asap7_75t_r%net080
                                                                 1.00 
       91 x1.xu5.x_pm_fax1_asap7_75t_r%net37.
                                            pm_fax1_asap7_75t_r%net37
                                                                 1.00 
       92 x1.xu5.x_pm_fax1_asap7_75t_r%net081.
                                            pm_fax1_asap7_75t_r%net081
                                                                 1.00 
       93 x1.xu5.x_pm_fax1_asap7_75t_r%net082.
                                            pm_fax1_asap7_75t_r%net082
                                                                 1.00 
       94 x1.xu5.x_pm_fax1_asap7_75t_r%noxref_18.
                                            pm_fax1_asap7_75t_r%noxref_18
                                                                 1.00 
       95 x1.xu5.x_pm_fax1_asap7_75t_r%noxref_19.
                                            pm_fax1_asap7_75t_r%noxref_19
                                                                 1.00 
       96 x1.xu5.x_pm_fax1_asap7_75t_r%sn.
                                            pm_fax1_asap7_75t_r%sn
                                                                 1.00 
       97 x1.xu5.x_pm_fax1_asap7_75t_r%con.
                                            pm_fax1_asap7_75t_r%con
                                                                 1.00 
       98 x1.xu5.x_pm_fax1_asap7_75t_r%ci.
                                            pm_fax1_asap7_75t_r%ci
                                                                 1.00 
       99 x1.xu5.x_pm_fax1_asap7_75t_r%b. pm_fax1_asap7_75t_r%b
                                                                 1.00 
      100 x1.xu5.x_pm_fax1_asap7_75t_r%a. pm_fax1_asap7_75t_r%a
                                                                 1.00 
      101 x1.xu6.x_pm_xnor2xp5_asap7_75t_r%noxref_15.
                                            pm_xnor2xp5_asap7_75t_r%noxref_15
                                                                 1.00 
      102 x1.xu6.x_pm_xnor2xp5_asap7_75t_r%noxref_12.
                                            pm_xnor2xp5_asap7_75t_r%noxref_12
                                                                 1.00 
      103 x1.xu6.x_pm_xnor2xp5_asap7_75t_r%noxref_13.
                                            pm_xnor2xp5_asap7_75t_r%noxref_13
                                                                 1.00 
      104 x1.xu6.x_pm_xnor2xp5_asap7_75t_r%noxref_14.
                                            pm_xnor2xp5_asap7_75t_r%noxref_14
                                                                 1.00 
      105 x1.xu6.x_pm_xnor2xp5_asap7_75t_r%noxref_16.
                                            pm_xnor2xp5_asap7_75t_r%noxref_16
                                                                 1.00 
      106 x1.xu6.x_pm_xnor2xp5_asap7_75t_r%noxref_17.
                                            pm_xnor2xp5_asap7_75t_r%noxref_17
                                                                 1.00 
      107 x1.xu6.x_pm_xnor2xp5_asap7_75t_r%y.
                                            pm_xnor2xp5_asap7_75t_r%y
                                                                 1.00 
      108 x1.xu6.x_pm_xnor2xp5_asap7_75t_r%noxref_11.
                                            pm_xnor2xp5_asap7_75t_r%noxref_11
                                                                 1.00 
      109 x1.xu6.x_pm_xnor2xp5_asap7_75t_r%noxref_10.
                                            pm_xnor2xp5_asap7_75t_r%noxref_10
                                                                 1.00 
      110 x1.xu6.x_pm_xnor2xp5_asap7_75t_r%net041.
                                            pm_xnor2xp5_asap7_75t_r%net041
                                                                 1.00 
      111 x1.xu6.x_pm_xnor2xp5_asap7_75t_r%net43.
                                            pm_xnor2xp5_asap7_75t_r%net43
                                                                 1.00 
      112 x1.xu6.x_pm_xnor2xp5_asap7_75t_r%net015.
                                            pm_xnor2xp5_asap7_75t_r%net015
                                                                 1.00 
      113 x1.xu6.x_pm_xnor2xp5_asap7_75t_r%b.
                                            pm_xnor2xp5_asap7_75t_r%b
                                                                 1.00 
      114 x1.xu6.x_pm_xnor2xp5_asap7_75t_r%a.
                                            pm_xnor2xp5_asap7_75t_r%a
                                                                 1.00 
      115 x1.xu6.x_pm_xnor2xp5_asap7_75t_r%net29.
                                            pm_xnor2xp5_asap7_75t_r%net29
                                                                 1.00 
      116 x1.xu7.x_pm_nand2xp5_asap7_75t_r%noxref_7.
                                            pm_nand2xp5_asap7_75t_r%noxref_7
                                                                 1.00 
      117 x1.xu7.x_pm_nand2xp5_asap7_75t_r%noxref_8.
                                            pm_nand2xp5_asap7_75t_r%noxref_8
                                                                 1.00 
      118 x1.xu7.x_pm_nand2xp5_asap7_75t_r%net16.
                                            pm_nand2xp5_asap7_75t_r%net16
                                                                 1.00 
      119 x1.xu7.x_pm_nand2xp5_asap7_75t_r%a.
                                            pm_nand2xp5_asap7_75t_r%a
                                                                 1.00 
      120 x1.xu7.x_pm_nand2xp5_asap7_75t_r%noxref_9.
                                            pm_nand2xp5_asap7_75t_r%noxref_9
                                                                 1.00 
      121 x1.xu7.x_pm_nand2xp5_asap7_75t_r%noxref_10.
                                            pm_nand2xp5_asap7_75t_r%noxref_10
                                                                 1.00 
      122 x1.xu7.x_pm_nand2xp5_asap7_75t_r%b.
                                            pm_nand2xp5_asap7_75t_r%b
                                                                 1.00 
      123 x1.xu7.x_pm_nand2xp5_asap7_75t_r%y.
                                            pm_nand2xp5_asap7_75t_r%y
                                                                 1.00 
      124 x1.xu8.x_pm_nand2xp5_asap7_75t_r%noxref_7.
                                            pm_nand2xp5_asap7_75t_r%noxref_7
                                                                 1.00 
      125 x1.xu8.x_pm_nand2xp5_asap7_75t_r%noxref_8.
                                            pm_nand2xp5_asap7_75t_r%noxref_8
                                                                 1.00 
      126 x1.xu8.x_pm_nand2xp5_asap7_75t_r%net16.
                                            pm_nand2xp5_asap7_75t_r%net16
                                                                 1.00 
      127 x1.xu8.x_pm_nand2xp5_asap7_75t_r%a.
                                            pm_nand2xp5_asap7_75t_r%a
                                                                 1.00 
      128 x1.xu8.x_pm_nand2xp5_asap7_75t_r%noxref_9.
                                            pm_nand2xp5_asap7_75t_r%noxref_9
                                                                 1.00 
      129 x1.xu8.x_pm_nand2xp5_asap7_75t_r%noxref_10.
                                            pm_nand2xp5_asap7_75t_r%noxref_10
                                                                 1.00 
      130 x1.xu8.x_pm_nand2xp5_asap7_75t_r%b.
                                            pm_nand2xp5_asap7_75t_r%b
                                                                 1.00 
      131 x1.xu8.x_pm_nand2xp5_asap7_75t_r%y.
                                            pm_nand2xp5_asap7_75t_r%y
                                                                 1.00 
      132 x1.xu9.x_pm_or2x2_asap7_75t_r%net15.
                                            pm_or2x2_asap7_75t_r%net15
                                                                 1.00 
      133 x1.xu9.x_pm_or2x2_asap7_75t_r%noxref_11.
                                            pm_or2x2_asap7_75t_r%noxref_11
                                                                 1.00 
      134 x1.xu9.x_pm_or2x2_asap7_75t_r%noxref_10.
                                            pm_or2x2_asap7_75t_r%noxref_10
                                                                 1.00 
      135 x1.xu9.x_pm_or2x2_asap7_75t_r%noxref_9.
                                            pm_or2x2_asap7_75t_r%noxref_9
                                                                 1.00 
      136 x1.xu9.x_pm_or2x2_asap7_75t_r%b.
                                            pm_or2x2_asap7_75t_r%b
                                                                 1.00 
      137 x1.xu9.x_pm_or2x2_asap7_75t_r%noxref_8.
                                            pm_or2x2_asap7_75t_r%noxref_8
                                                                 1.00 
      138 x1.xu9.x_pm_or2x2_asap7_75t_r%y.
                                            pm_or2x2_asap7_75t_r%y
                                                                 1.00 
      139 x1.xu9.x_pm_or2x2_asap7_75t_r%a.
                                            pm_or2x2_asap7_75t_r%a
                                                                 1.00 
      140 x1.xu9.x_pm_or2x2_asap7_75t_r%net7.
                                            pm_or2x2_asap7_75t_r%net7
                                                                 1.00 
      141 x1.xu10.x_pm_nand2xp5_asap7_75t_r%noxref_7.
                                            pm_nand2xp5_asap7_75t_r%noxref_7
                                                                 1.00 
      142 x1.xu10.x_pm_nand2xp5_asap7_75t_r%noxref_8.
                                            pm_nand2xp5_asap7_75t_r%noxref_8
                                                                 1.00 
      143 x1.xu10.x_pm_nand2xp5_asap7_75t_r%net16.
                                            pm_nand2xp5_asap7_75t_r%net16
                                                                 1.00 
      144 x1.xu10.x_pm_nand2xp5_asap7_75t_r%a.
                                            pm_nand2xp5_asap7_75t_r%a
                                                                 1.00 
      145 x1.xu10.x_pm_nand2xp5_asap7_75t_r%noxref_9.
                                            pm_nand2xp5_asap7_75t_r%noxref_9
                                                                 1.00 
      146 x1.xu10.x_pm_nand2xp5_asap7_75t_r%noxref_10.
                                            pm_nand2xp5_asap7_75t_r%noxref_10
                                                                 1.00 
      147 x1.xu10.x_pm_nand2xp5_asap7_75t_r%b.
                                            pm_nand2xp5_asap7_75t_r%b
                                                                 1.00 
      148 x1.xu10.x_pm_nand2xp5_asap7_75t_r%y.
                                            pm_nand2xp5_asap7_75t_r%y
                                                                 1.00 
      149 x1.xu11.x_pm_xor2xp5_asap7_75t_r%noxref_14.
                                            pm_xor2xp5_asap7_75t_r%noxref_14
                                                                 1.00 
      150 x1.xu11.x_pm_xor2xp5_asap7_75t_r%noxref_13.
                                            pm_xor2xp5_asap7_75t_r%noxref_13
                                                                 1.00 
      151 x1.xu11.x_pm_xor2xp5_asap7_75t_r%noxref_15.
                                            pm_xor2xp5_asap7_75t_r%noxref_15
                                                                 1.00 
      152 x1.xu11.x_pm_xor2xp5_asap7_75t_r%noxref_16.
                                            pm_xor2xp5_asap7_75t_r%noxref_16
                                                                 1.00 
      153 x1.xu11.x_pm_xor2xp5_asap7_75t_r%noxref_17.
                                            pm_xor2xp5_asap7_75t_r%noxref_17
                                                                 1.00 
      154 x1.xu11.x_pm_xor2xp5_asap7_75t_r%noxref_12.
                                            pm_xor2xp5_asap7_75t_r%noxref_12
                                                                 1.00 
      155 x1.xu11.x_pm_xor2xp5_asap7_75t_r%y.
                                            pm_xor2xp5_asap7_75t_r%y
                                                                 1.00 
      156 x1.xu11.x_pm_xor2xp5_asap7_75t_r%net047.
                                            pm_xor2xp5_asap7_75t_r%net047
                                                                 1.00 
      157 x1.xu11.x_pm_xor2xp5_asap7_75t_r%noxref_10.
                                            pm_xor2xp5_asap7_75t_r%noxref_10
                                                                 1.00 
      158 x1.xu11.x_pm_xor2xp5_asap7_75t_r%net048.
                                            pm_xor2xp5_asap7_75t_r%net048
                                                                 1.00 
      159 x1.xu11.x_pm_xor2xp5_asap7_75t_r%noxref_11.
                                            pm_xor2xp5_asap7_75t_r%noxref_11
                                                                 1.00 
      160 x1.xu11.x_pm_xor2xp5_asap7_75t_r%net019.
                                            pm_xor2xp5_asap7_75t_r%net019
                                                                 1.00 
      161 x1.xu11.x_pm_xor2xp5_asap7_75t_r%b.
                                            pm_xor2xp5_asap7_75t_r%b
                                                                 1.00 
      162 x1.xu11.x_pm_xor2xp5_asap7_75t_r%a.
                                            pm_xor2xp5_asap7_75t_r%a
                                                                 1.00 
      163 x1.xu11.x_pm_xor2xp5_asap7_75t_r%net036.
                                            pm_xor2xp5_asap7_75t_r%net036
                                                                 1.00 
      164 x1.xu12.x_pm_invx1_asap7_75t_r%noxref_6.
                                            pm_invx1_asap7_75t_r%noxref_6
                                                                 1.00 
      165 x1.xu12.x_pm_invx1_asap7_75t_r%noxref_5.
                                            pm_invx1_asap7_75t_r%noxref_5
                                                                 1.00 
      166 x1.xu12.x_pm_invx1_asap7_75t_r%noxref_7.
                                            pm_invx1_asap7_75t_r%noxref_7
                                                                 1.00 
      167 x1.xu12.x_pm_invx1_asap7_75t_r%noxref_8.
                                            pm_invx1_asap7_75t_r%noxref_8
                                                                 1.00 
      168 x1.xu12.x_pm_invx1_asap7_75t_r%y.
                                            pm_invx1_asap7_75t_r%y
                                                                 1.00 
      169 x1.xu12.x_pm_invx1_asap7_75t_r%a.
                                            pm_invx1_asap7_75t_r%a
                                                                 1.00 
      170 x1.xu13.x_pm_nand2xp5_asap7_75t_r%noxref_7.
                                            pm_nand2xp5_asap7_75t_r%noxref_7
                                                                 1.00 
      171 x1.xu13.x_pm_nand2xp5_asap7_75t_r%noxref_8.
                                            pm_nand2xp5_asap7_75t_r%noxref_8
                                                                 1.00 
      172 x1.xu13.x_pm_nand2xp5_asap7_75t_r%net16.
                                            pm_nand2xp5_asap7_75t_r%net16
                                                                 1.00 
      173 x1.xu13.x_pm_nand2xp5_asap7_75t_r%a.
                                            pm_nand2xp5_asap7_75t_r%a
                                                                 1.00 
      174 x1.xu13.x_pm_nand2xp5_asap7_75t_r%noxref_9.
                                            pm_nand2xp5_asap7_75t_r%noxref_9
                                                                 1.00 
      175 x1.xu13.x_pm_nand2xp5_asap7_75t_r%noxref_10.
                                            pm_nand2xp5_asap7_75t_r%noxref_10
                                                                 1.00 
      176 x1.xu13.x_pm_nand2xp5_asap7_75t_r%b.
                                            pm_nand2xp5_asap7_75t_r%b
                                                                 1.00 
      177 x1.xu13.x_pm_nand2xp5_asap7_75t_r%y.
                                            pm_nand2xp5_asap7_75t_r%y
                                                                 1.00 
      178 x1.xu14.x_pm_nand2xp5_asap7_75t_r%noxref_7.
                                            pm_nand2xp5_asap7_75t_r%noxref_7
                                                                 1.00 
      179 x1.xu14.x_pm_nand2xp5_asap7_75t_r%noxref_8.
                                            pm_nand2xp5_asap7_75t_r%noxref_8
                                                                 1.00 
      180 x1.xu14.x_pm_nand2xp5_asap7_75t_r%net16.
                                            pm_nand2xp5_asap7_75t_r%net16
                                                                 1.00 
      181 x1.xu14.x_pm_nand2xp5_asap7_75t_r%a.
                                            pm_nand2xp5_asap7_75t_r%a
                                                                 1.00 
      182 x1.xu14.x_pm_nand2xp5_asap7_75t_r%noxref_9.
                                            pm_nand2xp5_asap7_75t_r%noxref_9
                                                                 1.00 
      183 x1.xu14.x_pm_nand2xp5_asap7_75t_r%noxref_10.
                                            pm_nand2xp5_asap7_75t_r%noxref_10
                                                                 1.00 
      184 x1.xu14.x_pm_nand2xp5_asap7_75t_r%b.
                                            pm_nand2xp5_asap7_75t_r%b
                                                                 1.00 
      185 x1.xu14.x_pm_nand2xp5_asap7_75t_r%y.
                                            pm_nand2xp5_asap7_75t_r%y
                                                                 1.00 
      186 x1.xu15.x_pm_or2x2_asap7_75t_r%net15.
                                            pm_or2x2_asap7_75t_r%net15
                                                                 1.00 
      187 x1.xu15.x_pm_or2x2_asap7_75t_r%noxref_11.
                                            pm_or2x2_asap7_75t_r%noxref_11
                                                                 1.00 
      188 x1.xu15.x_pm_or2x2_asap7_75t_r%noxref_10.
                                            pm_or2x2_asap7_75t_r%noxref_10
                                                                 1.00 
      189 x1.xu15.x_pm_or2x2_asap7_75t_r%noxref_9.
                                            pm_or2x2_asap7_75t_r%noxref_9
                                                                 1.00 
      190 x1.xu15.x_pm_or2x2_asap7_75t_r%b.
                                            pm_or2x2_asap7_75t_r%b
                                                                 1.00 
      191 x1.xu15.x_pm_or2x2_asap7_75t_r%noxref_8.
                                            pm_or2x2_asap7_75t_r%noxref_8
                                                                 1.00 
      192 x1.xu15.x_pm_or2x2_asap7_75t_r%y.
                                            pm_or2x2_asap7_75t_r%y
                                                                 1.00 
      193 x1.xu15.x_pm_or2x2_asap7_75t_r%a.
                                            pm_or2x2_asap7_75t_r%a
                                                                 1.00 
      194 x1.xu15.x_pm_or2x2_asap7_75t_r%net7.
                                            pm_or2x2_asap7_75t_r%net7
                                                                 1.00 
      195 x1.xu16.x_pm_nand3xp33_asap7_75t_r%noxref_12.
                                            pm_nand3xp33_asap7_75t_r%noxref_12
                                                                 1.00 
      196 x1.xu16.x_pm_nand3xp33_asap7_75t_r%noxref_11.
                                            pm_nand3xp33_asap7_75t_r%noxref_11
                                                                 1.00 
      197 x1.xu16.x_pm_nand3xp33_asap7_75t_r%net21.
                                            pm_nand3xp33_asap7_75t_r%net21
                                                                 1.00 
      198 x1.xu16.x_pm_nand3xp33_asap7_75t_r%net22.
                                            pm_nand3xp33_asap7_75t_r%net22
                                                                 1.00 
      199 x1.xu16.x_pm_nand3xp33_asap7_75t_r%noxref_9.
                                            pm_nand3xp33_asap7_75t_r%noxref_9
                                                                 1.00 
      200 x1.xu16.x_pm_nand3xp33_asap7_75t_r%c.
                                            pm_nand3xp33_asap7_75t_r%c
                                                                 1.00 
      201 x1.xu16.x_pm_nand3xp33_asap7_75t_r%noxref_10.
                                            pm_nand3xp33_asap7_75t_r%noxref_10
                                                                 1.00 
      202 x1.xu16.x_pm_nand3xp33_asap7_75t_r%y.
                                            pm_nand3xp33_asap7_75t_r%y
                                                                 1.00 
      203 x1.xu16.x_pm_nand3xp33_asap7_75t_r%b.
                                            pm_nand3xp33_asap7_75t_r%b
                                                                 1.00 
      204 x1.xu16.x_pm_nand3xp33_asap7_75t_r%a.
                                            pm_nand3xp33_asap7_75t_r%a
                                                                 1.00 
      205 x1.xu17.x_pm_nand3xp33_asap7_75t_r%noxref_12.
                                            pm_nand3xp33_asap7_75t_r%noxref_12
                                                                 1.00 
      206 x1.xu17.x_pm_nand3xp33_asap7_75t_r%noxref_11.
                                            pm_nand3xp33_asap7_75t_r%noxref_11
                                                                 1.00 
      207 x1.xu17.x_pm_nand3xp33_asap7_75t_r%net21.
                                            pm_nand3xp33_asap7_75t_r%net21
                                                                 1.00 
      208 x1.xu17.x_pm_nand3xp33_asap7_75t_r%net22.
                                            pm_nand3xp33_asap7_75t_r%net22
                                                                 1.00 
      209 x1.xu17.x_pm_nand3xp33_asap7_75t_r%noxref_9.
                                            pm_nand3xp33_asap7_75t_r%noxref_9
                                                                 1.00 
      210 x1.xu17.x_pm_nand3xp33_asap7_75t_r%c.
                                            pm_nand3xp33_asap7_75t_r%c
                                                                 1.00 
      211 x1.xu17.x_pm_nand3xp33_asap7_75t_r%noxref_10.
                                            pm_nand3xp33_asap7_75t_r%noxref_10
                                                                 1.00 
      212 x1.xu17.x_pm_nand3xp33_asap7_75t_r%y.
                                            pm_nand3xp33_asap7_75t_r%y
                                                                 1.00 
      213 x1.xu17.x_pm_nand3xp33_asap7_75t_r%b.
                                            pm_nand3xp33_asap7_75t_r%b
                                                                 1.00 
      214 x1.xu17.x_pm_nand3xp33_asap7_75t_r%a.
                                            pm_nand3xp33_asap7_75t_r%a
                                                                 1.00 
      215 x1.xu18.x_pm_xnor2xp5_asap7_75t_r%noxref_15.
                                            pm_xnor2xp5_asap7_75t_r%noxref_15
                                                                 1.00 
      216 x1.xu18.x_pm_xnor2xp5_asap7_75t_r%noxref_12.
                                            pm_xnor2xp5_asap7_75t_r%noxref_12
                                                                 1.00 
      217 x1.xu18.x_pm_xnor2xp5_asap7_75t_r%noxref_13.
                                            pm_xnor2xp5_asap7_75t_r%noxref_13
                                                                 1.00 
      218 x1.xu18.x_pm_xnor2xp5_asap7_75t_r%noxref_14.
                                            pm_xnor2xp5_asap7_75t_r%noxref_14
                                                                 1.00 
      219 x1.xu18.x_pm_xnor2xp5_asap7_75t_r%noxref_16.
                                            pm_xnor2xp5_asap7_75t_r%noxref_16
                                                                 1.00 
      220 x1.xu18.x_pm_xnor2xp5_asap7_75t_r%noxref_17.
                                            pm_xnor2xp5_asap7_75t_r%noxref_17
                                                                 1.00 
      221 x1.xu18.x_pm_xnor2xp5_asap7_75t_r%y.
                                            pm_xnor2xp5_asap7_75t_r%y
                                                                 1.00 
      222 x1.xu18.x_pm_xnor2xp5_asap7_75t_r%noxref_11.
                                            pm_xnor2xp5_asap7_75t_r%noxref_11
                                                                 1.00 
      223 x1.xu18.x_pm_xnor2xp5_asap7_75t_r%noxref_10.
                                            pm_xnor2xp5_asap7_75t_r%noxref_10
                                                                 1.00 
      224 x1.xu18.x_pm_xnor2xp5_asap7_75t_r%net041.
                                            pm_xnor2xp5_asap7_75t_r%net041
                                                                 1.00 
      225 x1.xu18.x_pm_xnor2xp5_asap7_75t_r%net43.
                                            pm_xnor2xp5_asap7_75t_r%net43
                                                                 1.00 
      226 x1.xu18.x_pm_xnor2xp5_asap7_75t_r%net015.
                                            pm_xnor2xp5_asap7_75t_r%net015
                                                                 1.00 
      227 x1.xu18.x_pm_xnor2xp5_asap7_75t_r%b.
                                            pm_xnor2xp5_asap7_75t_r%b
                                                                 1.00 
      228 x1.xu18.x_pm_xnor2xp5_asap7_75t_r%a.
                                            pm_xnor2xp5_asap7_75t_r%a
                                                                 1.00 
      229 x1.xu18.x_pm_xnor2xp5_asap7_75t_r%net29.
                                            pm_xnor2xp5_asap7_75t_r%net29
                                                                 1.00 
      230 x1.xu19.x_pm_xor2xp5_asap7_75t_r%noxref_14.
                                            pm_xor2xp5_asap7_75t_r%noxref_14
                                                                 1.00 
      231 x1.xu19.x_pm_xor2xp5_asap7_75t_r%noxref_13.
                                            pm_xor2xp5_asap7_75t_r%noxref_13
                                                                 1.00 
      232 x1.xu19.x_pm_xor2xp5_asap7_75t_r%noxref_15.
                                            pm_xor2xp5_asap7_75t_r%noxref_15
                                                                 1.00 
      233 x1.xu19.x_pm_xor2xp5_asap7_75t_r%noxref_16.
                                            pm_xor2xp5_asap7_75t_r%noxref_16
                                                                 1.00 
      234 x1.xu19.x_pm_xor2xp5_asap7_75t_r%noxref_17.
                                            pm_xor2xp5_asap7_75t_r%noxref_17
                                                                 1.00 
      235 x1.xu19.x_pm_xor2xp5_asap7_75t_r%noxref_12.
                                            pm_xor2xp5_asap7_75t_r%noxref_12
                                                                 1.00 
      236 x1.xu19.x_pm_xor2xp5_asap7_75t_r%y.
                                            pm_xor2xp5_asap7_75t_r%y
                                                                 1.00 
      237 x1.xu19.x_pm_xor2xp5_asap7_75t_r%net047.
                                            pm_xor2xp5_asap7_75t_r%net047
                                                                 1.00 
      238 x1.xu19.x_pm_xor2xp5_asap7_75t_r%noxref_10.
                                            pm_xor2xp5_asap7_75t_r%noxref_10
                                                                 1.00 
      239 x1.xu19.x_pm_xor2xp5_asap7_75t_r%net048.
                                            pm_xor2xp5_asap7_75t_r%net048
                                                                 1.00 
      240 x1.xu19.x_pm_xor2xp5_asap7_75t_r%noxref_11.
                                            pm_xor2xp5_asap7_75t_r%noxref_11
                                                                 1.00 
      241 x1.xu19.x_pm_xor2xp5_asap7_75t_r%net019.
                                            pm_xor2xp5_asap7_75t_r%net019
                                                                 1.00 
      242 x1.xu19.x_pm_xor2xp5_asap7_75t_r%b.
                                            pm_xor2xp5_asap7_75t_r%b
                                                                 1.00 
      243 x1.xu19.x_pm_xor2xp5_asap7_75t_r%a.
                                            pm_xor2xp5_asap7_75t_r%a
                                                                 1.00 
      244 x1.xu19.x_pm_xor2xp5_asap7_75t_r%net036.
                                            pm_xor2xp5_asap7_75t_r%net036
                                                                 1.00 
      245 x1.xu20.x_pm_invx1_asap7_75t_r%noxref_6.
                                            pm_invx1_asap7_75t_r%noxref_6
                                                                 1.00 
      246 x1.xu20.x_pm_invx1_asap7_75t_r%noxref_5.
                                            pm_invx1_asap7_75t_r%noxref_5
                                                                 1.00 
      247 x1.xu20.x_pm_invx1_asap7_75t_r%noxref_7.
                                            pm_invx1_asap7_75t_r%noxref_7
                                                                 1.00 
      248 x1.xu20.x_pm_invx1_asap7_75t_r%noxref_8.
                                            pm_invx1_asap7_75t_r%noxref_8
                                                                 1.00 
      249 x1.xu20.x_pm_invx1_asap7_75t_r%y.
                                            pm_invx1_asap7_75t_r%y
                                                                 1.00 
      250 x1.xu20.x_pm_invx1_asap7_75t_r%a.
                                            pm_invx1_asap7_75t_r%a
                                                                 1.00 
      251 x1.xu21.x_pm_or2x2_asap7_75t_r%net15.
                                            pm_or2x2_asap7_75t_r%net15
                                                                 1.00 
      252 x1.xu21.x_pm_or2x2_asap7_75t_r%noxref_11.
                                            pm_or2x2_asap7_75t_r%noxref_11
                                                                 1.00 
      253 x1.xu21.x_pm_or2x2_asap7_75t_r%noxref_10.
                                            pm_or2x2_asap7_75t_r%noxref_10
                                                                 1.00 
      254 x1.xu21.x_pm_or2x2_asap7_75t_r%noxref_9.
                                            pm_or2x2_asap7_75t_r%noxref_9
                                                                 1.00 
      255 x1.xu21.x_pm_or2x2_asap7_75t_r%b.
                                            pm_or2x2_asap7_75t_r%b
                                                                 1.00 
      256 x1.xu21.x_pm_or2x2_asap7_75t_r%noxref_8.
                                            pm_or2x2_asap7_75t_r%noxref_8
                                                                 1.00 
      257 x1.xu21.x_pm_or2x2_asap7_75t_r%y.
                                            pm_or2x2_asap7_75t_r%y
                                                                 1.00 
      258 x1.xu21.x_pm_or2x2_asap7_75t_r%a.
                                            pm_or2x2_asap7_75t_r%a
                                                                 1.00 
      259 x1.xu21.x_pm_or2x2_asap7_75t_r%net7.
                                            pm_or2x2_asap7_75t_r%net7
                                                                 1.00 
      260 x1.xu22.x_pm_nand2xp5_asap7_75t_r%noxref_7.
                                            pm_nand2xp5_asap7_75t_r%noxref_7
                                                                 1.00 
      261 x1.xu22.x_pm_nand2xp5_asap7_75t_r%noxref_8.
                                            pm_nand2xp5_asap7_75t_r%noxref_8
                                                                 1.00 
      262 x1.xu22.x_pm_nand2xp5_asap7_75t_r%net16.
                                            pm_nand2xp5_asap7_75t_r%net16
                                                                 1.00 
      263 x1.xu22.x_pm_nand2xp5_asap7_75t_r%a.
                                            pm_nand2xp5_asap7_75t_r%a
                                                                 1.00 
      264 x1.xu22.x_pm_nand2xp5_asap7_75t_r%noxref_9.
                                            pm_nand2xp5_asap7_75t_r%noxref_9
                                                                 1.00 
      265 x1.xu22.x_pm_nand2xp5_asap7_75t_r%noxref_10.
                                            pm_nand2xp5_asap7_75t_r%noxref_10
                                                                 1.00 
      266 x1.xu22.x_pm_nand2xp5_asap7_75t_r%b.
                                            pm_nand2xp5_asap7_75t_r%b
                                                                 1.00 
      267 x1.xu22.x_pm_nand2xp5_asap7_75t_r%y.
                                            pm_nand2xp5_asap7_75t_r%y
                                                                 1.00 
      268 x1.xu23.x_pm_nand2xp5_asap7_75t_r%noxref_7.
                                            pm_nand2xp5_asap7_75t_r%noxref_7
                                                                 1.00 
      269 x1.xu23.x_pm_nand2xp5_asap7_75t_r%noxref_8.
                                            pm_nand2xp5_asap7_75t_r%noxref_8
                                                                 1.00 
      270 x1.xu23.x_pm_nand2xp5_asap7_75t_r%net16.
                                            pm_nand2xp5_asap7_75t_r%net16
                                                                 1.00 
      271 x1.xu23.x_pm_nand2xp5_asap7_75t_r%a.
                                            pm_nand2xp5_asap7_75t_r%a
                                                                 1.00 
      272 x1.xu23.x_pm_nand2xp5_asap7_75t_r%noxref_9.
                                            pm_nand2xp5_asap7_75t_r%noxref_9
                                                                 1.00 
      273 x1.xu23.x_pm_nand2xp5_asap7_75t_r%noxref_10.
                                            pm_nand2xp5_asap7_75t_r%noxref_10
                                                                 1.00 
      274 x1.xu23.x_pm_nand2xp5_asap7_75t_r%b.
                                            pm_nand2xp5_asap7_75t_r%b
                                                                 1.00 
      275 x1.xu23.x_pm_nand2xp5_asap7_75t_r%y.
                                            pm_nand2xp5_asap7_75t_r%y
                                                                 1.00 
      276 x1.xu24.x_pm_nand2xp5_asap7_75t_r%noxref_7.
                                            pm_nand2xp5_asap7_75t_r%noxref_7
                                                                 1.00 
      277 x1.xu24.x_pm_nand2xp5_asap7_75t_r%noxref_8.
                                            pm_nand2xp5_asap7_75t_r%noxref_8
                                                                 1.00 
      278 x1.xu24.x_pm_nand2xp5_asap7_75t_r%net16.
                                            pm_nand2xp5_asap7_75t_r%net16
                                                                 1.00 
      279 x1.xu24.x_pm_nand2xp5_asap7_75t_r%a.
                                            pm_nand2xp5_asap7_75t_r%a
                                                                 1.00 
      280 x1.xu24.x_pm_nand2xp5_asap7_75t_r%noxref_9.
                                            pm_nand2xp5_asap7_75t_r%noxref_9
                                                                 1.00 
      281 x1.xu24.x_pm_nand2xp5_asap7_75t_r%noxref_10.
                                            pm_nand2xp5_asap7_75t_r%noxref_10
                                                                 1.00 
      282 x1.xu24.x_pm_nand2xp5_asap7_75t_r%b.
                                            pm_nand2xp5_asap7_75t_r%b
                                                                 1.00 
      283 x1.xu24.x_pm_nand2xp5_asap7_75t_r%y.
                                            pm_nand2xp5_asap7_75t_r%y
                                                                 1.00 
 ******  
 .title test adder

 ****** mos   model parameters tnom=  25.000 temp=  25.000 ******
 Model file: ../../7nm_TT.pm
 Model line:           68
 Model Name: nmos_rvt 
 BSIM-MG BULK Model(Level72)
   VERSION =    107  
   L = 2.1e-08 
   D =  4e-08 
   TFIN = 6.5e-09 
   FPITCH = 2.7e-08 
   NF = 1 
   NFIN =      1 
   NGCON = 1 
   ASEO =      0 
   ADEO =      0 
   PSEO =      0 
   PDEO =      0 
   ASEJ =      0 
   ADEJ =      0 
   PSEJ =      0 
   PDEJ =      0 
   CGSP =      0 
   CGDP =      0 
   CDSP =      0 
   NRS =      0 
   NRD =      0 
   LRSD = 2.1e-08 
   XL =  1e-09 
   DTEMP =      0 
   DELVTRAND =      0 
   U0MULT =      1 
   IDS0MULT =      1 
   DEVTYPE = 1 
   BULKMOD = 1 
   COREMOD = 0 
   GEOMOD = 1 
   RDSMOD = 0 
   ASYMMOD = 0 
   IGCMOD = 1 
   IGBMOD = 0 
   GIDLMOD = 1 
   IIMOD = 0 
   NQSMOD = 0 
   SHMOD = 0 
   RGATEMOD = 0 
   RGEOMOD = 0 
   CGEOMOD = 0 
   CAPMOD = 0 
   LINT = -2e-09 
   LL =      0 
   LLN =      1 
   DLC =      0 
   DLCACC =      0 
   DLBIN =      0 
   LLC =      0 
   EOT =  1e-09 
   TOXP = 2.1e-09 
   EOTBOX = 1.4e-07 
   HFIN = 3.2e-08 
   FECH =      1 
   DELTAW =      0 
   FECHCV =      1 
   DELTAWCV =      0 
   NBODY =  1e+22 
   NSD =  2e+26 
   PHIG =  4.372 
   EPSROX =    3.9 
   EPSRSUB =   11.9 
   EASUB =   4.05 
   NI0SUB = 1.1e+16 
   BG0SUB =   1.17 
   NC0SUB = 2.86e+25 
   NGATE =      0 
   CIT =      0 
   CDSC =   0.01 
   CDSCD =   0.01 
   CDSCDR =   0.01 
   DVT0 =   0.05 
   DVT1 =   0.48 
   PHIN =   0.05 
   ETA0 =  0.062 
   ETA0R =  0.062 
   DSUB =   0.35 
   K1RSCE =      0 
   LPE0 =      0 
   DVTSHIFT =      0 
   PHIBE =    0.7 
   K0 =      0 
   K0SI =      1 
   K1 =      0 
   K1SAT =      0 
   QMFACTOR =    2.5 
   QMTCENIV =      0 
   QMTCENCV =      0 
   QMTCENCVA =      0 
   AQMTCEN =      0 
   BQMTCEN = 1.2e-08 
   ETAQM =   0.54 
   QM0 =  0.001 
   PQM =   0.66 
   QM0ACC =  0.001 
   PQMACC =   0.66 
   VSAT =  7e+04 
   AVSAT =      0 
   BVSAT =  1e-07 
   VSAT1 =  7e+04 
   VSAT1R =  7e+04 
   AVSAT1 =      0 
   BVSAT1 =  1e-07 
   DELTAVSAT =   0.28 
   PSAT =      2 
   APSAT =      0 
   BPSAT =      1 
   KSATIV =      2 
   VSATCV =  7e+04 
   AVSATCV =      0 
   BVSATCV =  1e-07 
   MEXP =      4 
   AMEXP =      0 
   BMEXP =      1 
   PTWG =     30 
   PTWGR =     30 
   APTWG =      0 
   BPTWG =  1e-07 
   AT =  0.001 
   TMEXP =      0 
   PTWGT =  0.004 
   U0 = 0.0252 
   ETAMOB =      2 
   UP =      0 
   LPA =      1 
   UA =   0.55 
   AUA =      0 
   BUA =  1e-07 
   UC =      0 
   EU =    1.2 
   AEU =      0 
   BEU =  1e-07 
   UD =      0 
   AUD =      0 
   BUD =  5e-08 
   UCS =      1 
   UTE =   -0.7 
   UTL =      0 
   EMOBT =      0 
   UA1 = 0.001032 
   UC1 = 5.6e-11 
   UD1 =      0 
   UCSTE = -0.004775 
   RDSWMIN =      0 
   RDSW =    200 
   ARDSW =      0 
   BRDSW =  1e-07 
   RSWMIN =      0 
   RSW =     50 
   ARSW =      0 
   BRSW =  1e-07 
   RDWMIN =      0 
   RDW =     50 
   ARDW =      0 
   BRDW =  1e-07 
   RSDR =      0 
   RSDRR =      0 
   RDDR =      0 
   RDDRR =      0 
   PRSDR =      1 
   PRDDR =      1 
   PRWGS =      0 
   PRWGD =      0 
   WR =      1 
   PRT =      0 
   TRSDR =      0 
   TRDDR =      0 
   PDIBL1 =      0 
   PDIBL1R =      0 
   PDIBL2 =  0.002 
   DROUT =      1 
   PVAG =      0 
   PCLM =   0.05 
   APCLM =      0 
   BPCLM =  1e-07 
   PCLMG =      0 
   PCLMCV =   0.05 
   A1 =      0 
   A2 =      0 
   RGEXT =      0 
   RGFIN =  0.001 
   RSHS =      0 
   RSHD =      0 
   HEPI =  1e-08 
   TSILI =  1e-08 
   RHOC =  1e-12 
   RHORSD =      1 
   CRATIO =    0.5 
   DELTAPRSD =      0 
   SDTERM = 0 
   LSP = 4.4e-09 
   EPSRSP =    3.9 
   TGATE =  3e-08 
   TMASK =  3e-08 
   ASILIEND =      0 
   ARSDEND =      0 
   PRSDEND =      0 
   NSDE =  2e+25 
   RGEOA =      1 
   RGEOB =      0 
   RGEOC =      0 
   RGEOD =      0 
   RGEOE =      0 
   CGEOA =      1 
   CGEOB =      0 
   CGEOC =      0 
   CGEOD =      0 
   CGEOE =      1 
   AIGBINV = 0.0111 
   BIGBINV = 0.000949 
   CIGBINV =  0.006 
   EIGBINV =    1.1 
   NIGBINV =      3 
   AIGBACC = 0.0136 
   BIGBACC = 0.00171 
   CIGBACC =  0.075 
   NIGBACC =      1 
   AIGC =  0.014 
   BIGC =  0.005 
   CIGC =   0.25 
   PIGCD =      1 
   DLCIGS =  1e-09 
   AIGS = 0.0115 
   BIGS = 0.00332 
   CIGS =   0.35 
   DLCIGD =  1e-09 
   AIGD = 0.0115 
   BIGD = 0.00332 
   CIGD =   0.35 
   TOXREF = 1.2e-09 
   NTOX =      1 
   POXEDGE =    1.1 
   AGISL =  1e-12 
   BGISL =  1e+07 
   CGISL =    0.5 
   EGISL =   0.35 
   PGISL =      1 
   AGIDL =  1e-12 
   BGIDL =  1e+07 
   CGIDL =    0.5 
   EGIDL =   0.35 
   PGIDL =      1 
   ALPHA0 =      0 
   ALPHA1 =      0 
   BETA0 =      0 
   BETAII0 =      0 
   BETAII1 =      0 
   BETAII2 =    0.1 
   ESATII =  1e+07 
   LII =  5e-10 
   SII0 =    0.5 
   SII1 =    0.1 
   SII2 =      0 
   SIID =      0 
   EOTACC =  1e-10 
   DELVFBACC =      0 
   CFS =      0 
   CFD =      0 
   COVS =      0 
   COVD =      0 
   CGSO = 1.6e-10 
   CGDO = 1.6e-10 
   CGSL =      0 
   CGDL =      0 
   CKAPPAS =    0.6 
   CKAPPAD =    0.6 
   CGBO =      0 
   CGBN =      0 
   CGBL =      0 
   CKAPPAB =    0.6 
   CSDESW =      0 
   CJS = 0.0005 
   CJD = 0.0005 
   CJSWS =  5e-10 
   CJSWD =  5e-10 
   CJSWGS =      0 
   CJSWGD =      0 
   PBS =      1 
   PBD =      1 
   PBSWS =      1 
   PBSWD =      1 
   PBSWGS =      1 
   PBSWGD =      1 
   MJS =    0.5 
   MJD =    0.5 
   MJSWS =   0.33 
   MJSWD =   0.33 
   MJSWGS =   0.33 
   MJSWGD =   0.33 
   SJS =      0 
   SJD =      0 
   SJSWS =      0 
   SJSWD =      0 
   SJSWGS =      0 
   SJSWGD =      0 
   MJS2 =  0.125 
   MJD2 =  0.125 
   MJSWS2 =  0.083 
   MJSWD2 =  0.083 
   MJSWGS2 =  0.083 
   MJSWGD2 =  0.083 
   JSS = 0.0001 
   JSD = 0.0001 
   JSWS =      0 
   JSWD =      0 
   JSWGS =      0 
   JSWGD =      0 
   NJS =      1 
   NJD =      1 
   IJTHSFWD =    0.1 
   IJTHDFWD =    0.1 
   IJTHSREV =    0.1 
   IJTHDREV =    0.1 
   BVS =     10 
   BVD =     10 
   XJBVS =      1 
   XJBVD =      1 
   JTSS =      0 
   JTSD =      0 
   JTSSWS =      0 
   JTSSWD =      0 
   JTSSWGS =      0 
   JTSSWGD =      0 
   JTWEFF =      0 
   NJTS =     20 
   NJTSD =     20 
   NJTSSW =     20 
   NJTSSWD =     20 
   NJTSSWG =     20 
   NJTSSWGD =     20 
   VTSS =     10 
   VTSD =     10 
   VTSSWS =     10 
   VTSSWD =     10 
   VTSSWGS =     10 
   VTSSWGD =     10 
   LINTIGEN =      0 
   NTGEN =      1 
   AIGEN =      0 
   BIGEN =      0 
   XRCRG1 =     12 
   XRCRG2 =      1 
   NSEG = 5 
   EF =      1 
   EM = 4.1e+07 
   NOIA = 6.25e+39 
   NOIB = 3.125e+24 
   NOIC = 8.75e+07 
   NTNOI =      1 
   TNOM =     25 
   TBGASUB = 0.000473 
   TBGBSUB =    636 
   KT1 =      0 
   KT1L =      0 
   TSS =      0 
   IIT =   -0.5 
   TII =      0 
   TGIDL = -0.007 
   IGT =    2.5 
   TCJ =      0 
   TCJSW =      0 
   TCJSWG =      0 
   TPB =      0 
   TPBSW =      0 
   TPBSWG =      0 
   XTIS =      3 
   XTID =      3 
   XTSS =   0.02 
   XTSD =   0.02 
   XTSSWS =   0.02 
   XTSSWD =   0.02 
   XTSSWGS =   0.02 
   XTSSWGD =   0.02 
   TNJTS =      0 
   TNJTSD =      0 
   TNJTSSW =      0 
   TNJTSSWD =      0 
   TNJTSSWG =      0 
   TNJTSSWGD =      0 
   RTH0 =  0.225 
   CTH0 = 1.243e-06 
   WTH0 = 2.6e-07 
   LNBODY =      0 
   NNBODY =      0 
   PNBODY =      0 
   LPHIG =      0 
   NPHIG =      0 
   PPHIG =      0 
   LNGATE =      0 
   NNGATE =      0 
   PNGATE =      0 
   LCIT =      0 
   NCIT =      0 
   PCIT =      0 
   LCDSC =      0 
   NCDSC =      0 
   PCDSC =      0 
   LCDSCD =  5e-05 
   NCDSCD =      0 
   PCDSCD =      0 
   LCDSCDR =  5e-05 
   NCDSCDR =      0 
   PCDSCDR =      0 
   LDVT0 =      0 
   NDVT0 =      0 
   PDVT0 =      0 
   LDVT1 =      0 
   NDVT1 =      0 
   PDVT1 =      0 
   LPHIN =      0 
   NPHIN =      0 
   PPHIN =      0 
   LETA0 =      0 
   NETA0 =      0 
   PETA0 =      0 
   LETA0R =      0 
   NETA0R =      0 
   PETA0R =      0 
   LDSUB =      0 
   NDSUB =      0 
   PDSUB =      0 
   LK1RSCE =      0 
   NK1RSCE =      0 
   PK1RSCE =      0 
   LLPE0 =      0 
   NLPE0 =      0 
   PLPE0 =      0 
   LDVTSHIFT =      0 
   NDVTSHIFT =      0 
   PDVTSHIFT =      0 
   LPHIBE =      0 
   NPHIBE =      0 
   PPHIBE =      0 
   LK0 =      0 
   NK0 =      0 
   PK0 =      0 
   LK0SI =      0 
   NK0SI =      0 
   PK0SI =      0 
   LK1 =      0 
   NK1 =      0 
   PK1 =      0 
   LK1SAT =      0 
   NK1SAT =      0 
   PK1SAT =      0 
   LDVTB =      0 
   NDVTB =      0 
   PDVTB =      0 
   LLPEB =      0 
   NLPEB =      0 
   PLPEB =      0 
   LQMFACTOR =      0 
   NQMFACTOR =      0 
   PQMFACTOR =      0 
   LQMTCENIV =      0 
   NQMTCENIV =      0 
   PQMTCENIV =      0 
   LQMTCENCV =      0 
   NQMTCENCV =      0 
   PQMTCENCV =      0 
   LQMTCENCVA =      0 
   NQMTCENCVA =      0 
   PQMTCENCVA =      0 
   LVSAT =      0 
   NVSAT =      0 
   PVSAT =      0 
   LVSAT1 =      0 
   NVSAT1 =      0 
   PVSAT1 =      0 
   LVSAT1R =      0 
   NVSAT1R =      0 
   PVSAT1R =      0 
   LPSAT =      0 
   NPSAT =      0 
   PPSAT =      0 
   LDELTAVSAT =      0 
   NDELTAVSAT =      0 
   PDELTAVSAT =      0 
   LKSATIV =      0 
   NKSATIV =      0 
   PKSATIV =      0 
   LVSATCV =      0 
   NVSATCV =      0 
   PVSATCV =      0 
   LMEXP =      0 
   NMEXP =      0 
   PMEXP =      0 
   LPTWG =      0 
   NPTWG =      0 
   PPTWG =      0 
   LPTWGR =      0 
   NPTWGR =      0 
   PPTWGR =      0 
   LU0 =      0 
   NU0 =      0 
   PU0 =      0 
   LETAMOB =      0 
   NETAMOB =      0 
   PETAMOB =      0 
   LUP =      0 
   NUP =      0 
   PUP =      0 
   LUA =      0 
   NUA =      0 
   PUA =      0 
   LUC =      0 
   NUC =      0 
   PUC =      0 
   LEU =      0 
   NEU =      0 
   PEU =      0 
   LUD =      0 
   NUD =      0 
   PUD =      0 
   LUCS =      0 
   NUCS =      0 
   PUCS =      0 
   LPCLM =      0 
   NPCLM =      0 
   PPCLM =      0 
   LPCLMG =      0 
   NPCLMG =      0 
   PPCLMG =      0 
   LPCLMCV =      0 
   NPCLMCV =      0 
   PPCLMCV =      0 
   LA1 =      0 
   NA1 =      0 
   PA1 =      0 
   LA2 =      0 
   NA2 =      0 
   PA2 =      0 
   LRDSW =    0.2 
   NRDSW =      0 
   PRDSW =      0 
   LRSW =      0 
   NRSW =      0 
   PRSW =      0 
   LRDW =      0 
   NRDW =      0 
   PRDW =      0 
   LPRWGS =      0 
   NPRWGS =      0 
   PPRWGS =      0 
   LPRWGD =      0 
   NPRWGD =      0 
   PPRWGD =      0 
   LWR =      0 
   NWR =      0 
   PWR =      0 
   LPDIBL1 =      0 
   NPDIBL1 =      0 
   PPDIBL1 =      0 
   LPDIBL1R =      0 
   NPDIBL1R =      0 
   PPDIBL1R =      0 
   LPDIBL2 =      0 
   NPDIBL2 =      0 
   PPDIBL2 =      0 
   LDROUT =      0 
   NDROUT =      0 
   PDROUT =      0 
   LPVAG =      0 
   NPVAG =      0 
   PPVAG =      0 
   LAIGBINV =      0 
   NAIGBINV =      0 
   PAIGBINV =      0 
   LBIGBINV =      0 
   NBIGBINV =      0 
   PBIGBINV =      0 
   LCIGBINV =      0 
   NCIGBINV =      0 
   PCIGBINV =      0 
   LEIGBINV =      0 
   NEIGBINV =      0 
   PEIGBINV =      0 
   LNIGBINV =      0 
   NNIGBINV =      0 
   PNIGBINV =      0 
   LAIGBACC =      0 
   NAIGBACC =      0 
   PAIGBACC =      0 
   LBIGBACC =      0 
   NBIGBACC =      0 
   PBIGBACC =      0 
   LCIGBACC =      0 
   NCIGBACC =      0 
   PCIGBACC =      0 
   LNIGBACC =      0 
   NNIGBACC =      0 
   PNIGBACC =      0 
   LAIGC =      0 
   NAIGC =      0 
   PAIGC =      0 
   LBIGC =      0 
   NBIGC =      0 
   PBIGC =      0 
   LCIGC =      0 
   NCIGC =      0 
   PCIGC =      0 
   LPIGCD =      0 
   NPIGCD =      0 
   PPIGCD =      0 
   LAIGS =      0 
   NAIGS =      0 
   PAIGS =      0 
   LBIGS =      0 
   NBIGS =      0 
   PBIGS =      0 
   LCIGS =      0 
   NCIGS =      0 
   PCIGS =      0 
   LAIGD =      0 
   NAIGD =      0 
   PAIGD =      0 
   LBIGD =      0 
   NBIGD =      0 
   PBIGD =      0 
   LCIGD =      0 
   NCIGD =      0 
   PCIGD =      0 
   LNTOX =      0 
   NNTOX =      0 
   PNTOX =      0 
   LPOXEDGE =      0 
   NPOXEDGE =      0 
   PPOXEDGE =      0 
   LAGISL =      0 
   NAGISL =      0 
   PAGISL =      0 
   LBGISL =      0 
   NBGISL =      0 
   PBGISL =      0 
   LCGISL =      0 
   NCGISL =      0 
   PCGISL =      0 
   LEGISL =      0 
   NEGISL =      0 
   PEGISL =      0 
   LPGISL =      0 
   NPGISL =      0 
   PPGISL =      0 
   LAGIDL =      0 
   NAGIDL =      0 
   PAGIDL =      0 
   LBGIDL =      0 
   NBGIDL =      0 
   PBGIDL =      0 
   LCGIDL =      0 
   NCGIDL =      0 
   PCGIDL =      0 
   LEGIDL =      0 
   NEGIDL =      0 
   PEGIDL =      0 
   LPGIDL =      0 
   NPGIDL =      0 
   PPGIDL =      0 
   LALPHA0 =      0 
   NALPHA0 =      0 
   PALPHA0 =      0 
   LALPHA1 =      0 
   NALPHA1 =      0 
   PALPHA1 =      0 
   LBETA0 =      0 
   NBETA0 =      0 
   PBETA0 =      0 
   LBETAII0 =      0 
   NBETAII0 =      0 
   PBETAII0 =      0 
   LBETAII1 =      0 
   NBETAII1 =      0 
   PBETAII1 =      0 
   LBETAII2 =      0 
   NBETAII2 =      0 
   PBETAII2 =      0 
   LESATII =      0 
   NESATII =      0 
   PESATII =      0 
   LLII =      0 
   NLII =      0 
   PLII =      0 
   LSII0 =      0 
   NSII0 =      0 
   PSII0 =      0 
   LSII1 =      0 
   NSII1 =      0 
   PSII1 =      0 
   LSII2 =      0 
   NSII2 =      0 
   PSII2 =      0 
   LSIID =      0 
   NSIID =      0 
   PSIID =      0 
   LCFS =      0 
   NCFS =      0 
   PCFS =      0 
   LCFD =      0 
   NCFD =      0 
   PCFD =      0 
   LCOVS =      0 
   NCOVS =      0 
   PCOVS =      0 
   LCOVD =      0 
   NCOVD =      0 
   PCOVD =      0 
   LCGSL =      0 
   NCGSL =      0 
   PCGSL =      0 
   LCGDL =      0 
   NCGDL =      0 
   PCGDL =      0 
   LCKAPPAS =      0 
   NCKAPPAS =      0 
   PCKAPPAS =      0 
   LCKAPPAD =      0 
   NCKAPPAD =      0 
   PCKAPPAD =      0 
   LCGBL =      0 
   NCGBL =      0 
   PCGBL =      0 
   LCKAPPAB =      0 
   NCKAPPAB =      0 
   PCKAPPAB =      0 
   LNTGEN =      0 
   NNTGEN =      0 
   PNTGEN =      0 
   LAIGEN =      0 
   NAIGEN =      0 
   PAIGEN =      0 
   LBIGEN =      0 
   NBIGEN =      0 
   PBIGEN =      0 
   LXRCRG1 =      0 
   NXRCRG1 =      0 
   PXRCRG1 =      0 
   LXRCRG2 =      0 
   NXRCRG2 =      0 
   PXRCRG2 =      0 
   LINTNOI =      0 
   LUTE =      0 
   NUTE =      0 
   PUTE =      0 
   LUTL =      0 
   NUTL =      0 
   PUTL =      0 
   LEMOBT =      0 
   NEMOBT =      0 
   PEMOBT =      0 
   LUA1 =      0 
   NUA1 =      0 
   PUA1 =      0 
   LUC1 =      0 
   NUC1 =      0 
   PUC1 =      0 
   LUD1 =      0 
   NUD1 =      0 
   PUD1 =      0 
   LUCSTE =      0 
   NUCSTE =      0 
   PUCSTE =      0 
   LPTWGT =      0 
   NPTWGT =      0 
   PPTWGT =      0 
   LAT =      0 
   NAT =      0 
   PAT =      0 
   LSTTHETASAT =      0 
   NSTTHETASAT =      0 
   PSTTHETASAT =      0 
   LPRT =      0 
   NPRT =      0 
   PPRT =      0 
   LKT1 =      0 
   NKT1 =      0 
   PKT1 =      0 
   LTSS =      0 
   NTSS =      0 
   PTSS =      0 
   LIIT =      0 
   NIIT =      0 
   PIIT =      0 
   LTII =      0 
   NTII =      0 
   PTII =      0 
   LTGIDL =      0 
   NTGIDL =      0 
   PTGIDL =      0 
   LIGT =      0 
   NIGT =      0 
   PIGT =      0 
   Imin =  1e-15 
   K01 =      0 
   K0SI1 =      0 
   K1SI =      1 
   K1SI1 =      0 
   K11 =      0 
   K1SAT1 =      0 
   DELTAVSATCV =   0.28 
   PSATCV =      2 
   APSATCV =      0 
   BPSATCV =      1 
   A11 =      0 
   A21 =      0 
   AIGBINV1 =      0 
   AIGBACC1 =      0 
   AIGC1 =      0 
   AIGS1 =      0 
   AIGD1 =      0 
   TOXG = 1.8e-09 
   ALPHA01 =      0 
   ALPHA11 =      0 
   ALPHAII0 =      0 
   ALPHAII01 =      0 
   ALPHAII1 =      0 
   ALPHAII11 =      0 
   LK01 =      0 
   NK01 =      0 
   PK01 =      0 
   LK0SI1 =      0 
   NK0SI1 =      0 
   PK0SI1 =      0 
   LK1SI =      0 
   NK1SI =      0 
   PK1SI =      0 
   LK1SI1 =      0 
   NK1SI1 =      0 
   PK1SI1 =      0 
   LK11 =      0 
   NK11 =      0 
   PK11 =      0 
   LK1SAT1 =      0 
   NK1SAT1 =      0 
   PK1SAT1 =      0 
   LPSATCV =      0 
   NPSATCV =      0 
   PPSATCV =      0 
   LDELTAVSATCV =      0 
   NDELTAVSATCV =      0 
   PDELTAVSATCV =      0 
   LA11 =      0 
   NA11 =      0 
   PA11 =      0 
   LA21 =      0 
   NA21 =      0 
   PA21 =      0 
   LAIGBINV1 =      0 
   NAIGBINV1 =      0 
   PAIGBINV1 =      0 
   LAIGBACC1 =      0 
   NAIGBACC1 =      0 
   PAIGBACC1 =      0 
   LAIGC1 =      0 
   NAIGC1 =      0 
   PAIGC1 =      0 
   LAIGS1 =      0 
   NAIGS1 =      0 
   PAIGS1 =      0 
   LAIGD1 =      0 
   NAIGD1 =      0 
   PAIGD1 =      0 
   LALPHAII0 =      0 
   NALPHAII0 =      0 
   PALPHAII0 =      0 
   LALPHAII1 =      0 
   NALPHAII1 =      0 
   PALPHAII1 =      0 
   CGEO1SW = 0 
   NBODYN1 =      0 
   NBODYN2 =  1e+05 
   PHIGL =      0 
   PHIGN1 =      0 
   PHIGN2 =  1e+05 
   CDSCN1 =      0 
   CDSCN2 =  1e+05 
   CDSCDN1 =      0 
   CDSCDN2 =  1e+05 
   CDSCDRN1 =      0 
   CDSCDRN2 =  1e+05 
   DVT1SS =   0.48 
   ETA0N1 =      0 
   ETA0N2 =  1e+05 
   TETA0 =      0 
   TETA0R =      0 
   DVTP0 =      0 
   DVTP1 =      0 
   VSATN1 =      0 
   VSATN2 =  1e+05 
   VSAT1N1 =      0 
   VSAT1N2 =  1e+05 
   VSAT1RN1 =      0 
   VSAT1RN2 =  1e+05 
   MEXPR =      4 
   AMEXPR =      0 
   BMEXPR =      1 
   TMEXPR =      0 
   U0N1 =      0 
   U0N2 =  1e+05 
   CHARGEWF =      0 
   LDVT1SS =      0 
   NDVT1SS =      0 
   PDVT1SS =      0 
   LMEXPR =      0 
   NMEXPR =      0 
   PMEXPR =      0 
   Lmin =      0 m
   Lmax =      1 m
   NFINmin =      0 
   NFINmax =      1 
 Model file: ../../7nm_TT.pm
 Model line:          324
 Model Name: pmos_rvt 
 BSIM-MG BULK Model(Level72)
   VERSION =    107  
   L = 2.1e-08 
   D =  4e-08 
   TFIN = 6.5e-09 
   FPITCH = 2.7e-08 
   NF = 1 
   NFIN =      1 
   NGCON = 1 
   ASEO =      0 
   ADEO =      0 
   PSEO =      0 
   PDEO =      0 
   ASEJ =      0 
   ADEJ =      0 
   PSEJ =      0 
   PDEJ =      0 
   CGSP =      0 
   CGDP =      0 
   CDSP =      0 
   NRS =      0 
   NRD =      0 
   LRSD = 2.1e-08 
   XL =  1e-09 
   DTEMP =      0 
   DELVTRAND =      0 
   U0MULT =      1 
   IDS0MULT =      1 
   DEVTYPE = 0 
   BULKMOD = 1 
   COREMOD = 0 
   GEOMOD = 1 
   RDSMOD = 0 
   ASYMMOD = 0 
   IGCMOD = 1 
   IGBMOD = 0 
   GIDLMOD = 1 
   IIMOD = 0 
   NQSMOD = 0 
   SHMOD = 0 
   RGATEMOD = 0 
   RGEOMOD = 0 
   CGEOMOD = 0 
   CAPMOD = 0 
   LINT = -2.5e-09 
   LL =      0 
   LLN =      1 
   DLC =      0 
   DLCACC =      0 
   DLBIN =      0 
   LLC =      0 
   EOT =  1e-09 
   TOXP = 2.1e-09 
   EOTBOX = 1.4e-07 
   HFIN = 3.2e-08 
   FECH =      1 
   DELTAW =      0 
   FECHCV =      1 
   DELTAWCV =      0 
   NBODY =  1e+22 
   NSD =  2e+26 
   PHIG =  4.811 
   EPSROX =    3.9 
   EPSRSUB =   11.9 
   EASUB =   4.05 
   NI0SUB = 1.1e+16 
   BG0SUB =   1.17 
   NC0SUB = 2.86e+25 
   NGATE =      0 
   CIT =      0 
   CDSC = 0.003469 
   CDSCD = 0.001486 
   CDSCDR = 0.001486 
   DVT0 =   0.05 
   DVT1 =    0.4 
   PHIN =   0.05 
   ETA0 =   0.09 
   ETA0R =   0.09 
   DSUB =   0.24 
   K1RSCE =      0 
   LPE0 =      0 
   DVTSHIFT =      0 
   PHIBE =    0.7 
   K0 =      0 
   K0SI =      1 
   K1 =      0 
   K1SAT =      0 
   QMFACTOR =      0 
   QMTCENIV =      0 
   QMTCENCV =      0 
   QMTCENCVA =      0 
   AQMTCEN =      0 
   BQMTCEN = 1.2e-08 
   ETAQM =   0.54 
   QM0 = 2.183e-12 
   PQM =   0.66 
   QM0ACC =  0.001 
   PQMACC =   0.66 
   VSAT =  6e+04 
   AVSAT =      0 
   BVSAT =  1e-07 
   VSAT1 =  6e+04 
   VSAT1R =  6e+04 
   AVSAT1 =      0 
   BVSAT1 =  1e-07 
   DELTAVSAT =   0.22 
   PSAT =      2 
   APSAT =      0 
   BPSAT =      1 
   KSATIV =  1.592 
   VSATCV =  6e+04 
   AVSATCV =      0 
   BVSATCV =  1e-07 
   MEXP =  2.491 
   AMEXP =      0 
   BMEXP =      1 
   PTWG =     25 
   PTWGR =     25 
   APTWG =      0 
   BPTWG =  1e-07 
   AT =  0.001 
   TMEXP =      0 
   PTWGT =  0.004 
   U0 = 0.0209 
   ETAMOB =      4 
   UP =      0 
   LPA =      1 
   UA =  1.133 
   AUA =      0 
   BUA =  1e-07 
   UC =      0 
   EU =   0.05 
   AEU =      0 
   BEU =  1e-07 
   UD = 0.0105 
   AUD =      0 
   BUD =  5e-08 
   UCS = 0.2672 
   UTE =   -1.2 
   UTL =      0 
   EMOBT =      0 
   UA1 = 0.001032 
   UC1 = 5.6e-11 
   UD1 =      0 
   UCSTE = -0.004775 
   RDSWMIN =      0 
   RDSW =    200 
   ARDSW =      0 
   BRDSW =  1e-07 
   RSWMIN =      0 
   RSW =     50 
   ARSW =      0 
   BRSW =  1e-07 
   RDWMIN =      0 
   RDW =     50 
   ARDW =      0 
   BRDW =  1e-07 
   RSDR =      0 
   RSDRR =      0 
   RDDR =      0 
   RDDRR =      0 
   PRSDR =      1 
   PRDDR =      1 
   PRWGS =      0 
   PRWGD =      0 
   WR =      1 
   PRT =      0 
   TRSDR =      0 
   TRDDR =      0 
   PDIBL1 =    800 
   PDIBL1R =    800 
   PDIBL2 = 0.005704 
   DROUT =   4.97 
   PVAG =    200 
   PCLM =   0.01 
   APCLM =      0 
   BPCLM =  1e-07 
   PCLMG =      1 
   PCLMCV =   0.01 
   A1 =      0 
   A2 =      0 
   RGEXT =      0 
   RGFIN =  0.001 
   RSHS =      0 
   RSHD =      0 
   HEPI =  1e-08 
   TSILI =  1e-08 
   RHOC =  1e-12 
   RHORSD =      1 
   CRATIO =    0.5 
   DELTAPRSD =      0 
   SDTERM = 0 
   LSP = 4.4e-09 
   EPSRSP =    3.9 
   TGATE =  3e-08 
   TMASK =  3e-08 
   ASILIEND =      0 
   ARSDEND =      0 
   PRSDEND =      0 
   NSDE =  2e+25 
   RGEOA =      1 
   RGEOB =      0 
   RGEOC =      0 
   RGEOD =      0 
   RGEOE =      0 
   CGEOA =      1 
   CGEOB =      0 
   CGEOC =      0 
   CGEOD =      0 
   CGEOE =      1 
   AIGBINV = 0.0111 
   BIGBINV = 0.000949 
   CIGBINV =  0.006 
   EIGBINV =    1.1 
   NIGBINV =      3 
   AIGBACC = 0.0136 
   BIGBACC = 0.00171 
   CIGBACC =  0.075 
   NIGBACC =      1 
   AIGC =  0.007 
   BIGC = 0.0015 
   CIGC =      1 
   PIGCD =      1 
   DLCIGS =  5e-09 
   AIGS =  0.006 
   BIGS = 0.001944 
   CIGS =      1 
   DLCIGD =  5e-09 
   AIGD =  0.006 
   BIGD = 0.001944 
   CIGD =      1 
   TOXREF = 1.2e-09 
   NTOX =      1 
   POXEDGE =  1.152 
   AGISL =  2e-12 
   BGISL = 1.5e+08 
   CGISL =    0.5 
   EGISL =  1.142 
   PGISL =      1 
   AGIDL =  2e-12 
   BGIDL = 1.5e+08 
   CGIDL =    0.5 
   EGIDL =  1.142 
   PGIDL =      1 
   ALPHA0 =      0 
   ALPHA1 =      0 
   BETA0 =      0 
   BETAII0 =      0 
   BETAII1 =      0 
   BETAII2 =    0.1 
   ESATII =  1e+07 
   LII =  5e-10 
   SII0 =    0.5 
   SII1 =    0.1 
   SII2 =      0 
   SIID =      0 
   EOTACC =  3e-10 
   DELVFBACC =      0 
   CFS =      0 
   CFD =      0 
   COVS =      0 
   COVD =      0 
   CGSO = 1.6e-10 
   CGDO = 1.6e-10 
   CGSL =      0 
   CGDL =      0 
   CKAPPAS =    0.6 
   CKAPPAD =    0.6 
   CGBO =      0 
   CGBN =      0 
   CGBL =      0 
   CKAPPAB =    0.6 
   CSDESW =      0 
   CJS = 0.0005 
   CJD = 0.0005 
   CJSWS =  5e-10 
   CJSWD =  5e-10 
   CJSWGS =      0 
   CJSWGD =      0 
   PBS =      1 
   PBD =      1 
   PBSWS =      1 
   PBSWD =      1 
   PBSWGS =      1 
   PBSWGD =      1 
   MJS =    0.5 
   MJD =    0.5 
   MJSWS =   0.33 
   MJSWD =   0.33 
   MJSWGS =   0.33 
   MJSWGD =   0.33 
   SJS =      0 
   SJD =      0 
   SJSWS =      0 
   SJSWD =      0 
   SJSWGS =      0 
   SJSWGD =      0 
   MJS2 =  0.125 
   MJD2 =  0.125 
   MJSWS2 =  0.083 
   MJSWD2 =  0.083 
   MJSWGS2 =  0.083 
   MJSWGD2 =  0.083 
   JSS = 0.0001 
   JSD = 0.0001 
   JSWS =      0 
   JSWD =      0 
   JSWGS =      0 
   JSWGD =      0 
   NJS =      1 
   NJD =      1 
   IJTHSFWD =    0.1 
   IJTHDFWD =    0.1 
   IJTHSREV =    0.1 
   IJTHDREV =    0.1 
   BVS =     10 
   BVD =     10 
   XJBVS =      1 
   XJBVD =      1 
   JTSS =      0 
   JTSD =      0 
   JTSSWS =      0 
   JTSSWD =      0 
   JTSSWGS =      0 
   JTSSWGD =      0 
   JTWEFF =      0 
   NJTS =     20 
   NJTSD =     20 
   NJTSSW =     20 
   NJTSSWD =     20 
   NJTSSWG =     20 
   NJTSSWGD =     20 
   VTSS =     10 
   VTSD =     10 
   VTSSWS =     10 
   VTSSWD =     10 
   VTSSWGS =     10 
   VTSSWGD =     10 
   LINTIGEN =      0 
   NTGEN =      1 
   AIGEN =      0 
   BIGEN =      0 
   XRCRG1 =     12 
   XRCRG2 =      1 
   NSEG = 5 
   EF =      1 
   EM = 4.1e+07 
   NOIA = 6.25e+39 
   NOIB = 3.125e+24 
   NOIC = 8.75e+07 
   NTNOI =      1 
   TNOM =     25 
   TBGASUB = 0.000473 
   TBGBSUB =    636 
   KT1 =      0 
   KT1L =      0 
   TSS =      0 
   IIT =   -0.5 
   TII =      0 
   TGIDL = -0.007 
   IGT =    2.5 
   TCJ =      0 
   TCJSW =      0 
   TCJSWG =      0 
   TPB =      0 
   TPBSW =      0 
   TPBSWG =      0 
   XTIS =      3 
   XTID =      3 
   XTSS =   0.02 
   XTSD =   0.02 
   XTSSWS =   0.02 
   XTSSWD =   0.02 
   XTSSWGS =   0.02 
   XTSSWGD =   0.02 
   TNJTS =      0 
   TNJTSD =      0 
   TNJTSSW =      0 
   TNJTSSWD =      0 
   TNJTSSWG =      0 
   TNJTSSWGD =      0 
   RTH0 =   0.15 
   CTH0 = 1.243e-06 
   WTH0 = 2.6e-07 
   LNBODY =      0 
   NNBODY =      0 
   PNBODY =      0 
   LPHIG =      0 
   NPHIG =      0 
   PPHIG =      0 
   LNGATE =      0 
   NNGATE =      0 
   PNGATE =      0 
   LCIT =      0 
   NCIT =      0 
   PCIT =      0 
   LCDSC =      0 
   NCDSC =      0 
   PCDSC =      0 
   LCDSCD =      0 
   NCDSCD =      0 
   PCDSCD =      0 
   LCDSCDR =      0 
   NCDSCDR =      0 
   PCDSCDR =      0 
   LDVT0 =      0 
   NDVT0 =      0 
   PDVT0 =      0 
   LDVT1 =      0 
   NDVT1 =      0 
   PDVT1 =      0 
   LPHIN =      0 
   NPHIN =      0 
   PPHIN =      0 
   LETA0 =      0 
   NETA0 =      0 
   PETA0 =      0 
   LETA0R =      0 
   NETA0R =      0 
   PETA0R =      0 
   LDSUB =      0 
   NDSUB =      0 
   PDSUB =      0 
   LK1RSCE =      0 
   NK1RSCE =      0 
   PK1RSCE =      0 
   LLPE0 =      0 
   NLPE0 =      0 
   PLPE0 =      0 
   LDVTSHIFT =      0 
   NDVTSHIFT =      0 
   PDVTSHIFT =      0 
   LPHIBE =      0 
   NPHIBE =      0 
   PPHIBE =      0 
   LK0 =      0 
   NK0 =      0 
   PK0 =      0 
   LK0SI =      0 
   NK0SI =      0 
   PK0SI =      0 
   LK1 =      0 
   NK1 =      0 
   PK1 =      0 
   LK1SAT =      0 
   NK1SAT =      0 
   PK1SAT =      0 
   LDVTB =      0 
   NDVTB =      0 
   PDVTB =      0 
   LLPEB =      0 
   NLPEB =      0 
   PLPEB =      0 
   LQMFACTOR =      0 
   NQMFACTOR =      0 
   PQMFACTOR =      0 
   LQMTCENIV =      0 
   NQMTCENIV =      0 
   PQMTCENIV =      0 
   LQMTCENCV =      0 
   NQMTCENCV =      0 
   PQMTCENCV =      0 
   LQMTCENCVA =      0 
   NQMTCENCVA =      0 
   PQMTCENCVA =      0 
   LVSAT =   1441 
   NVSAT =      0 
   PVSAT =      0 
   LVSAT1 =   1441 
   NVSAT1 =      0 
   PVSAT1 =      0 
   LVSAT1R =   1441 
   NVSAT1R =      0 
   PVSAT1R =      0 
   LPSAT =      0 
   NPSAT =      0 
   PPSAT =      0 
   LDELTAVSAT =      0 
   NDELTAVSAT =      0 
   PDELTAVSAT =      0 
   LKSATIV =      0 
   NKSATIV =      0 
   PKSATIV =      0 
   LVSATCV =      0 
   NVSATCV =      0 
   PVSATCV =      0 
   LMEXP =      0 
   NMEXP =      0 
   PMEXP =      0 
   LPTWG =      0 
   NPTWG =      0 
   PPTWG =      0 
   LPTWGR =      0 
   NPTWGR =      0 
   PPTWGR =      0 
   LU0 =      0 
   NU0 =      0 
   PU0 =      0 
   LETAMOB =      0 
   NETAMOB =      0 
   PETAMOB =      0 
   LUP =      0 
   NUP =      0 
   PUP =      0 
   LUA =      0 
   NUA =      0 
   PUA =      0 
   LUC =      0 
   NUC =      0 
   PUC =      0 
   LEU =      0 
   NEU =      0 
   PEU =      0 
   LUD =      0 
   NUD =      0 
   PUD =      0 
   LUCS =      0 
   NUCS =      0 
   PUCS =      0 
   LPCLM =      0 
   NPCLM =      0 
   PPCLM =      0 
   LPCLMG =      0 
   NPCLMG =      0 
   PPCLMG =      0 
   LPCLMCV =      0 
   NPCLMCV =      0 
   PPCLMCV =      0 
   LA1 =      0 
   NA1 =      0 
   PA1 =      0 
   LA2 =      0 
   NA2 =      0 
   PA2 =      0 
   LRDSW =    1.3 
   NRDSW =      0 
   PRDSW =      0 
   LRSW =      0 
   NRSW =      0 
   PRSW =      0 
   LRDW =      0 
   NRDW =      0 
   PRDW =      0 
   LPRWGS =      0 
   NPRWGS =      0 
   PPRWGS =      0 
   LPRWGD =      0 
   NPRWGD =      0 
   PPRWGD =      0 
   LWR =      0 
   NWR =      0 
   PWR =      0 
   LPDIBL1 =      0 
   NPDIBL1 =      0 
   PPDIBL1 =      0 
   LPDIBL1R =      0 
   NPDIBL1R =      0 
   PPDIBL1R =      0 
   LPDIBL2 =      0 
   NPDIBL2 =      0 
   PPDIBL2 =      0 
   LDROUT =      0 
   NDROUT =      0 
   PDROUT =      0 
   LPVAG =      0 
   NPVAG =      0 
   PPVAG =      0 
   LAIGBINV =      0 
   NAIGBINV =      0 
   PAIGBINV =      0 
   LBIGBINV =      0 
   NBIGBINV =      0 
   PBIGBINV =      0 
   LCIGBINV =      0 
   NCIGBINV =      0 
   PCIGBINV =      0 
   LEIGBINV =      0 
   NEIGBINV =      0 
   PEIGBINV =      0 
   LNIGBINV =      0 
   NNIGBINV =      0 
   PNIGBINV =      0 
   LAIGBACC =      0 
   NAIGBACC =      0 
   PAIGBACC =      0 
   LBIGBACC =      0 
   NBIGBACC =      0 
   PBIGBACC =      0 
   LCIGBACC =      0 
   NCIGBACC =      0 
   PCIGBACC =      0 
   LNIGBACC =      0 
   NNIGBACC =      0 
   PNIGBACC =      0 
   LAIGC =      0 
   NAIGC =      0 
   PAIGC =      0 
   LBIGC =      0 
   NBIGC =      0 
   PBIGC =      0 
   LCIGC =      0 
   NCIGC =      0 
   PCIGC =      0 
   LPIGCD =      0 
   NPIGCD =      0 
   PPIGCD =      0 
   LAIGS =      0 
   NAIGS =      0 
   PAIGS =      0 
   LBIGS =      0 
   NBIGS =      0 
   PBIGS =      0 
   LCIGS =      0 
   NCIGS =      0 
   PCIGS =      0 
   LAIGD =      0 
   NAIGD =      0 
   PAIGD =      0 
   LBIGD =      0 
   NBIGD =      0 
   PBIGD =      0 
   LCIGD =      0 
   NCIGD =      0 
   PCIGD =      0 
   LNTOX =      0 
   NNTOX =      0 
   PNTOX =      0 
   LPOXEDGE =      0 
   NPOXEDGE =      0 
   PPOXEDGE =      0 
   LAGISL =      0 
   NAGISL =      0 
   PAGISL =      0 
   LBGISL =      0 
   NBGISL =      0 
   PBGISL =      0 
   LCGISL =      0 
   NCGISL =      0 
   PCGISL =      0 
   LEGISL =      0 
   NEGISL =      0 
   PEGISL =      0 
   LPGISL =      0 
   NPGISL =      0 
   PPGISL =      0 
   LAGIDL =      0 
   NAGIDL =      0 
   PAGIDL =      0 
   LBGIDL =      0 
   NBGIDL =      0 
   PBGIDL =      0 
   LCGIDL =      0 
   NCGIDL =      0 
   PCGIDL =      0 
   LEGIDL =      0 
   NEGIDL =      0 
   PEGIDL =      0 
   LPGIDL =      0 
   NPGIDL =      0 
   PPGIDL =      0 
   LALPHA0 =      0 
   NALPHA0 =      0 
   PALPHA0 =      0 
   LALPHA1 =      0 
   NALPHA1 =      0 
   PALPHA1 =      0 
   LBETA0 =      0 
   NBETA0 =      0 
   PBETA0 =      0 
   LBETAII0 =      0 
   NBETAII0 =      0 
   PBETAII0 =      0 
   LBETAII1 =      0 
   NBETAII1 =      0 
   PBETAII1 =      0 
   LBETAII2 =      0 
   NBETAII2 =      0 
   PBETAII2 =      0 
   LESATII =      0 
   NESATII =      0 
   PESATII =      0 
   LLII =      0 
   NLII =      0 
   PLII =      0 
   LSII0 =      0 
   NSII0 =      0 
   PSII0 =      0 
   LSII1 =      0 
   NSII1 =      0 
   PSII1 =      0 
   LSII2 =      0 
   NSII2 =      0 
   PSII2 =      0 
   LSIID =      0 
   NSIID =      0 
   PSIID =      0 
   LCFS =      0 
   NCFS =      0 
   PCFS =      0 
   LCFD =      0 
   NCFD =      0 
   PCFD =      0 
   LCOVS =      0 
   NCOVS =      0 
   PCOVS =      0 
   LCOVD =      0 
   NCOVD =      0 
   PCOVD =      0 
   LCGSL =      0 
   NCGSL =      0 
   PCGSL =      0 
   LCGDL =      0 
   NCGDL =      0 
   PCGDL =      0 
   LCKAPPAS =      0 
   NCKAPPAS =      0 
   PCKAPPAS =      0 
   LCKAPPAD =      0 
   NCKAPPAD =      0 
   PCKAPPAD =      0 
   LCGBL =      0 
   NCGBL =      0 
   PCGBL =      0 
   LCKAPPAB =      0 
   NCKAPPAB =      0 
   PCKAPPAB =      0 
   LNTGEN =      0 
   NNTGEN =      0 
   PNTGEN =      0 
   LAIGEN =      0 
   NAIGEN =      0 
   PAIGEN =      0 
   LBIGEN =      0 
   NBIGEN =      0 
   PBIGEN =      0 
   LXRCRG1 =      0 
   NXRCRG1 =      0 
   PXRCRG1 =      0 
   LXRCRG2 =      0 
   NXRCRG2 =      0 
   PXRCRG2 =      0 
   LINTNOI =      0 
   LUTE =      0 
   NUTE =      0 
   PUTE =      0 
   LUTL =      0 
   NUTL =      0 
   PUTL =      0 
   LEMOBT =      0 
   NEMOBT =      0 
   PEMOBT =      0 
   LUA1 =      0 
   NUA1 =      0 
   PUA1 =      0 
   LUC1 =      0 
   NUC1 =      0 
   PUC1 =      0 
   LUD1 =      0 
   NUD1 =      0 
   PUD1 =      0 
   LUCSTE =      0 
   NUCSTE =      0 
   PUCSTE =      0 
   LPTWGT =      0 
   NPTWGT =      0 
   PPTWGT =      0 
   LAT =      0 
   NAT =      0 
   PAT =      0 
   LSTTHETASAT =      0 
   NSTTHETASAT =      0 
   PSTTHETASAT =      0 
   LPRT =      0 
   NPRT =      0 
   PPRT =      0 
   LKT1 =      0 
   NKT1 =      0 
   PKT1 =      0 
   LTSS =      0 
   NTSS =      0 
   PTSS =      0 
   LIIT =      0 
   NIIT =      0 
   PIIT =      0 
   LTII =      0 
   NTII =      0 
   PTII =      0 
   LTGIDL =      0 
   NTGIDL =      0 
   PTGIDL =      0 
   LIGT =      0 
   NIGT =      0 
   PIGT =      0 
   Imin =  1e-15 
   K01 =      0 
   K0SI1 =      0 
   K1SI =      1 
   K1SI1 =      0 
   K11 =      0 
   K1SAT1 =      0 
   DELTAVSATCV =   0.22 
   PSATCV =      2 
   APSATCV =      0 
   BPSATCV =      1 
   A11 =      0 
   A21 =      0 
   AIGBINV1 =      0 
   AIGBACC1 =      0 
   AIGC1 =      0 
   AIGS1 =      0 
   AIGD1 =      0 
   TOXG = 1.9e-09 
   ALPHA01 =      0 
   ALPHA11 =      0 
   ALPHAII0 =      0 
   ALPHAII01 =      0 
   ALPHAII1 =      0 
   ALPHAII11 =      0 
   LK01 =      0 
   NK01 =      0 
   PK01 =      0 
   LK0SI1 =      0 
   NK0SI1 =      0 
   PK0SI1 =      0 
   LK1SI =      0 
   NK1SI =      0 
   PK1SI =      0 
   LK1SI1 =      0 
   NK1SI1 =      0 
   PK1SI1 =      0 
   LK11 =      0 
   NK11 =      0 
   PK11 =      0 
   LK1SAT1 =      0 
   NK1SAT1 =      0 
   PK1SAT1 =      0 
   LPSATCV =      0 
   NPSATCV =      0 
   PPSATCV =      0 
   LDELTAVSATCV =      0 
   NDELTAVSATCV =      0 
   PDELTAVSATCV =      0 
   LA11 =      0 
   NA11 =      0 
   PA11 =      0 
   LA21 =      0 
   NA21 =      0 
   PA21 =      0 
   LAIGBINV1 =      0 
   NAIGBINV1 =      0 
   PAIGBINV1 =      0 
   LAIGBACC1 =      0 
   NAIGBACC1 =      0 
   PAIGBACC1 =      0 
   LAIGC1 =      0 
   NAIGC1 =      0 
   PAIGC1 =      0 
   LAIGS1 =      0 
   NAIGS1 =      0 
   PAIGS1 =      0 
   LAIGD1 =      0 
   NAIGD1 =      0 
   PAIGD1 =      0 
   LALPHAII0 =      0 
   NALPHAII0 =      0 
   PALPHAII0 =      0 
   LALPHAII1 =      0 
   NALPHAII1 =      0 
   PALPHAII1 =      0 
   CGEO1SW = 0 
   NBODYN1 =      0 
   NBODYN2 =  1e+05 
   PHIGL =      0 
   PHIGN1 =      0 
   PHIGN2 =  1e+05 
   CDSCN1 =      0 
   CDSCN2 =  1e+05 
   CDSCDN1 =      0 
   CDSCDN2 =  1e+05 
   CDSCDRN1 =      0 
   CDSCDRN2 =  1e+05 
   DVT1SS =    0.4 
   ETA0N1 =      0 
   ETA0N2 =  1e+05 
   TETA0 =      0 
   TETA0R =      0 
   DVTP0 =      0 
   DVTP1 =      0 
   VSATN1 =      0 
   VSATN2 =  1e+05 
   VSAT1N1 =      0 
   VSAT1N2 =  1e+05 
   VSAT1RN1 =      0 
   VSAT1RN2 =  1e+05 
   MEXPR =  2.491 
   AMEXPR =      0 
   BMEXPR =      1 
   TMEXPR =      0 
   U0N1 =      0 
   U0N2 =  1e+05 
   CHARGEWF =      0 
   LDVT1SS =      0 
   NDVT1SS =      0 
   PDVT1SS =      0 
   LMEXPR =      0 
   NMEXPR =      0 
   PMEXPR =      0 
   Lmin =      0 m
   Lmax =      1 m
   NFINmin =      0 
   NFINmax =      1 
             
 Summary of Linear Res Distribution Info
 ---------------------------------------
 |Range          |Total     |Percent(%)|
 |---------------+----------+----------|
 |0e+00  ~  1e-05|17        |0.9214    |
 |1e-02  ~  1e-01|137       |7.4255    |
 |1e-01  ~  1e+00|256       |13.8753   |
 |1e+00  ~  1e+03|1435      |77.7778   |
 ---------------------------------------
              
             
 Summary of Linear Cap Distribution Info
 ---------------------------------------
 |Range          |Total     |Percent(%)|
 |---------------+----------+----------|
 |1e-20  ~  1e-19|11        |0.4806    |
 |1e-19  ~  1e-18|458       |20.0087   |
 |1e-18  ~  1e-17|1363      |59.5457   |
 |1e-17  ~  1e-16|457       |19.9651   |
 ---------------------------------------
              
             
 Summary of Detailed RC Type Statistics
 -------------------------
 |Element Type|Number    |
 |------------+----------|
 |Constant Res|1845      |
 |            |          |
 |Constant Cap|2289      |
 -------------------------
              
  
             
 Warning:'No DC path nodes' occurs 131 times
 No DC path from the following nodes,connected with gdcpath:
 -----------------------------------
 |Node           |Subckt           |
 |---------------+-----------------|
 |x2.n_noxref_5_1|invx1_asap7_75t_r|
 |x2.n_noxref_6_1|invx1_asap7_75t_r|
 |x2.n_noxref_7_1|invx1_asap7_75t_r|
 |x2.n_noxref_8_1|invx1_asap7_75t_r|
 |x3.n_noxref_5_1|invx1_asap7_75t_r|
 |x3.n_noxref_6_1|invx1_asap7_75t_r|
 |x3.n_noxref_7_1|invx1_asap7_75t_r|
 |x3.n_noxref_8_1|invx1_asap7_75t_r|
 |x4.n_noxref_5_1|invx1_asap7_75t_r|
 |x4.n_noxref_6_1|invx1_asap7_75t_r|
 -----------------------------------
              
      
 *****************************************************************
 ******  option summary
 ******
 runlvl  = 3         bypass  = 2.0000    
  Opening plot unit= 15
 file=22.pa0

 **error** stop simulation by signal SIGINT = 2

 ******  
 .title test adder

 ****** job statistics summary tnom=  25.000 temp=  25.000 ******
  
 ******  Machine Information  ******
 CPU:
 model name	: AMD EPYC 7763 64-Core Processor
 cpu MHz	: 2450.000
  
 OS:
 Linux version 3.10.0-1160.88.1.el7.x86_64 (mockbuild@kbuilder.bsys.centos.org) (gcc version 4.8.5 20150623 (Red Hat 4.8.5-44) (GCC) ) #1 SMP Tue Mar 7 15:41:52 UTC 2023


  ******  HSPICE Threads Information  ******

  Command Line Threads Count :     1
  Available CPU Count        :   256
  Actual Threads Count       :     1


  ******  Circuit Statistics  ******
  # nodes       =    2018 # elements   =    4304
  # resistors   =    1845 # capacitors =    2289 # inductors   =       0
  # mutual_inds =       0 # vccs       =       0 # vcvs        =       0
  # cccs        =       0 # ccvs       =       0 # volt_srcs   =       2
  # curr_srcs   =       0 # diodes     =       0 # bjts        =       0
  # jfets       =       0 # mosfets    =     160 # U elements  =       0
  # T elements  =       0 # W elements =       0 # B elements  =       0
  # S elements  =       0 # P elements =       0 # va device   =       0
  # vector_srcs =       8 # N elements =       0


  ******  Runtime Statistics (seconds)  ******

  analysis           time    # points   tot. iter  conv.iter
  op point           0.00           1          22
  transient          0.00         201           0           0 rev=         0
  readin             0.24
  errchk             0.02
  setup              0.10
  output             0.00


           peak memory used        425.94 megabytes
           total cpu time            0.40 seconds
           total elapsed time        0.55 seconds
           job started at     00:00:28 11/24/2023
           job ended   at     00:00:29 11/24/2023
 lic: Release hspice token(s) 
 lic: total license checkout elapse time:        0.15(s)
